21
Cobaltocene;
 Co       0.000097000      0.000243000     -0.000038000
 C        1.644763000      0.696710000      0.993817000
 C        1.644435000     -0.729884000      0.969907000
 C        1.644251000     -1.147942000     -0.394323000
 C        1.644547000      0.020279000     -1.213582000
 C        1.644836000      1.160344000     -0.355661000
 C       -1.644888000      0.698580000      0.992511000
 C       -1.644518000     -0.728106000      0.971131000
 C       -1.644334000     -1.148710000     -0.392330000
 C       -1.644612000      0.018043000     -1.213614000
 C       -1.644867000      1.159746000     -0.357728000
 H        1.614755000      1.318062000      1.879283000
 H        1.613898000     -1.380516000      1.834071000
 H        1.613442000     -2.170957000     -0.745802000
 H        1.614090000      0.038179000     -2.295169000
 H        1.614423000      2.194701000     -0.672269000
 H       -1.614540000      2.193369000     -0.676732000
 H       -1.613731000      0.034472000     -2.295214000
 H       -1.613587000     -2.172442000     -0.741715000
 H       -1.614238000     -1.376938000      1.836655000
 H       -1.614805000      1.321136000      1.877131000
