51
Cobaltocene_star;
 Co       0.000041000      0.000039000     -0.000275000
 C       -1.663206000      1.184321000      0.270272000
 C       -1.663625000      0.613970000     -1.047355000
 C       -1.656483000     -0.815306000     -0.912249000
 C       -1.651194000     -1.128437000      0.488992000
 C       -1.655708000      0.107578000      1.219761000
 C       -1.751632000      2.640780000      0.593504000
 C       -1.752132000      1.373248000     -2.331418000
 C       -1.735085000     -1.803524000     -2.030504000
 C       -1.723356000     -2.498405000      1.081979000
 C       -1.732976000      0.248362000      2.705539000
 C        1.655031000      0.981472000      0.733437000
 C        1.651833000      1.009789000     -0.702095000
 C        1.657009000     -0.346637000     -1.172325000
 C        1.664033000     -1.213167000     -0.027652000
 C        1.662629000     -0.392353000      1.150236000
 C        1.725863000      2.234883000     -1.554737000
 C        1.736532000     -0.780065000     -2.600116000
 C        1.751384000     -2.704893000     -0.058513000
 H       -2.803221000      2.949053000      0.635975000
 H       -1.306448000      2.873901000      1.563026000
 H       -1.264611000      3.259600000     -0.164034000
 H       -2.804025000      1.522206000     -2.603676000
 H       -1.294098000      2.361751000     -2.255209000
 H       -1.277395000      0.839395000     -3.158083000
 H       -2.784385000     -2.037127000     -2.247651000
 H       -1.291842000     -1.417755000     -2.951081000
 H       -1.239770000     -2.744935000     -1.781166000
 H       -2.771583000     -2.788298000      1.223079000
 H       -1.263610000     -3.249736000      0.436232000
 H       -1.240547000     -2.547895000      2.060799000
 H       -2.782397000      0.292699000      3.020930000
 H       -1.275253000     -0.597836000      3.222195000
 H       -1.251652000      1.164090000      3.056999000
 H        1.236542000      3.091378000     -1.085170000
 H        2.774438000      2.511073000     -1.718997000
 H        1.274338000      2.079733000     -2.536985000
 H        2.786377000     -0.855949000     -2.908078000
 H        1.253441000     -0.067680000     -3.272945000
 H        1.281246000     -1.760338000     -2.756483000
 H        1.306649000     -3.160271000      0.828831000
 H        1.262973000     -3.126552000     -0.940331000
 H        2.802576000     -3.015718000     -0.091249000
 C        1.749869000     -0.882033000      2.559407000
 H        2.801429000     -0.999361000      2.847837000
 H        1.296550000     -0.183317000      3.265656000
 H        1.270162000     -1.855493000      2.685910000
 C        1.731268000      2.170940000      1.634948000
 H        2.780375000      2.417841000      1.837630000
 H        1.271033000      3.054563000      1.187810000
 H        1.251293000      1.986778000      2.598977000
