29
compound_1; Picture 1
 C   -3.02010    8.49389    2.03801
 N   -1.54065    8.15257    2.09868
 C   -3.79585    8.19156    3.33259
 H   -3.43272    7.98512    1.29561
 H   -3.11475    9.45677    1.83030
 H   -4.73868    8.43230    3.21229
 H   -3.41644    8.71394    4.06986
 H   -3.72578    7.23594    3.53927
 C   -0.95738    8.32158    0.72801
 C   -0.98520    9.71853    0.16041
 H   -1.44778    7.72644    0.10694
 H   -0.01658    8.01377    0.75166
 H   -0.57374    9.71636   -0.73007
 H   -0.47892   10.31878    0.74960
 H   -1.90949   10.02713    0.09460
 C   -0.88365    9.04830    3.10123
 C    0.61150    8.84153    3.30277
 H   -1.33482    8.92186    3.97320
 H   -1.03215    9.98674    2.82463
 H    0.94296    9.48049    3.96806
 H    1.07884    8.98317    2.45240
 H    0.77625    7.92836    3.61742
 C   -1.33848    6.69655    2.50381
 C   -2.15277    5.66421    1.74496
 H   -0.38016    6.47508    2.39482
 H   -1.55304    6.61136    3.46729
 H   -1.94919    4.76930    2.08943
 H   -1.92576    5.70544    0.79176
 H   -3.10757    5.85067    1.86115
