281
borg2m; Picture 1
Fe  -20.37795  -27.89818  -17.75378
Fe  -16.10078  -16.10078  -16.10078
 O  -21.39458  -26.50393  -16.69607
 O  -20.17952  -28.65868  -15.90498
 O  -23.12537  -23.86839  -13.93816
 O  -26.78802  -23.63238  -21.88409
 O  -29.22250  -18.19085  -21.85350
 O  -27.17264  -19.55451  -20.99247
 O  -18.69348  -26.77491  -17.93298
 O  -19.14367  -29.30554  -18.43561
 O  -14.96528  -25.01789  -19.00380
 O  -19.98284  -19.90417  -13.12521
 O  -16.68733  -15.09640  -14.49761
 O  -17.38227  -17.43909  -15.38049
 N  -23.19968  -24.67697  -16.05358
 H  -22.85876  -25.29324  -16.57807
 N  -26.01441  -21.87098  -20.70838
 H  -26.07997  -21.00995  -20.53792
 N  -17.00639  -24.73379  -17.97669
 H  -17.79749  -25.10967  -17.88927
 N  -18.71097  -19.66378  -14.97839
 H  -18.20834  -19.10870  -15.44168
 C  -21.39021  -26.73120  -15.38923
 C  -20.71275  -27.90255  -14.95216
 C  -20.70838  -28.23035  -13.62784
 H  -20.28005  -29.03019  -13.33938
 C  -21.31153  -27.41303  -12.71000
 H  -21.28531  -27.65779  -11.78778
 C  -21.92343  -26.30724  -13.05965
 H  -22.32117  -25.76528  -12.38656
 C  -22.00647  -25.89640  -14.42768
 C  -22.80631  -24.71194  -14.79919
 C  -24.10004  -23.78098  -16.66548
 C  -25.09656  -23.16034  -15.93120
 H  -25.14027  -23.30020  -14.99150
 C  -26.04063  -22.32991  -16.53436
 H  -26.72683  -21.91906  -16.02299
 C  -25.96196  -22.10700  -17.91113
 H  -26.57386  -21.50821  -18.32197
 C  -25.01352  -22.74075  -18.67163
 C  -24.04322  -23.54496  -18.03788
 C  -23.01611  -24.15249  -18.82023
 H  -22.31679  -24.65075  -18.40502
 C  -23.05981  -24.00826  -20.16641
 H  -22.37798  -24.42784  -20.67778
 C  -24.06070  -23.26086  -20.87009
 H  -24.07382  -23.20842  -21.81853
 C  -25.01352  -22.62274  -20.07463
 C  -26.84921  -22.42606  -21.55629
 C  -27.95063  -21.56066  -22.08952
 C  -28.92092  -22.11574  -22.88498
 H  -28.84662  -23.03359  -23.12537
 C  -29.95678  -21.42080  -23.32643
 H  -30.60801  -21.84039  -23.87713
 C  -30.11849  -19.99595  -22.97677
 H  -30.87900  -19.50643  -23.27398
 C  -29.17442  -19.39280  -22.23812
 C  -28.02930  -20.19263  -21.77483
 C  -17.66637  -27.43051  -18.47495
 C  -17.93298  -28.85973  -18.71097
 C  -16.89276  -29.63772  -19.15678
 H  -17.01951  -30.56868  -19.27916
 C  -15.59903  -29.04767  -19.44962
 H  -14.89535  -29.58964  -19.79053
 C  -15.38923  -27.71461  -19.23545
 H  -14.54132  -27.32562  -19.41465
 C  -16.41635  -26.94537  -18.76779
 C  -16.04484  -25.46370  -18.58859
 C  -16.85342  -23.45318  -17.47843
 C  -15.59466  -22.76698  -17.60955
 H  -14.86475  -23.15597  -18.07722
 C  -15.47665  -21.42080  -16.98454
 H  -14.64622  -20.96188  -17.04573
 C  -16.52999  -20.80453  -16.31145
 H  -16.42946  -19.94350  -15.92246
 C  -17.80623  -21.53444  -16.22841
 C  -17.97669  -22.81505  -16.82282
 C  -19.20923  -23.43569  -16.74852
 H  -19.31412  -24.30109  -17.12440
 C  -20.27131  -22.83691  -16.15848
 H  -21.11048  -23.28709  -16.13225
 C  -20.14019  -21.56066  -15.57718
 H  -20.90943  -21.13233  -15.21441
 C  -18.89454  -20.90506  -15.52473
 C  -19.20049  -19.18300  -13.81578
 C  -18.80275  -17.89802  -13.40931
 C  -19.24419  -17.38227  -12.16366
 H  -19.82987  -17.90239  -11.62169
 C  -18.84646  -16.15848  -11.73533
 H  -19.14804  -15.83942  -10.89178
 C  -17.99854  -15.35427  -12.51331
 H  -17.73630  -14.49761  -12.19425
 C  -17.54836  -15.78697  -13.71089
 C  -17.95484  -17.07632  -14.17418
Fe  -17.75378  -20.37795  -27.89818
 O  -16.69607  -21.39458  -26.50393
 O  -15.90498  -20.17952  -28.65868
 O  -13.93816  -23.12537  -23.86839
 O  -21.88409  -26.78802  -23.63238
 O  -21.85350  -29.22250  -18.19085
 O  -20.99247  -27.17264  -19.55451
 O  -17.93298  -18.69348  -26.77491
 O  -18.43561  -19.14367  -29.30554
 O  -19.00380  -14.96528  -25.01789
 O  -13.12521  -19.98284  -19.90417
 O  -14.49761  -16.68733  -15.09640
 O  -15.38049  -17.38227  -17.43909
 O  -14.06928  -23.24338  -21.00558
 N  -16.05358  -23.19968  -24.67697
 H  -16.57807  -22.85876  -25.29324
 N  -20.70838  -26.01441  -21.87098
 H  -20.53792  -26.07997  -21.00995
 N  -17.97669  -17.00639  -24.73379
 H  -17.88927  -17.79749  -25.10967
 N  -14.97839  -18.71097  -19.66378
 H  -15.44168  -18.20834  -19.10870
 C  -15.38923  -21.39021  -26.73120
 C  -14.95216  -20.71275  -27.90255
 C  -13.62784  -20.70838  -28.23035
 H  -13.33938  -20.28005  -29.03019
 C  -12.71000  -21.31153  -27.41303
 H  -11.78778  -21.28531  -27.65779
 C  -13.05965  -21.92343  -26.30724
 H  -12.38656  -22.32117  -25.76528
 C  -14.42768  -22.00647  -25.89640
 C  -14.79919  -22.80631  -24.71194
 C  -16.66548  -24.10004  -23.78098
 C  -15.93120  -25.09656  -23.16034
 H  -14.99150  -25.14027  -23.30020
 C  -16.53436  -26.04063  -22.32991
 H  -16.02299  -26.72683  -21.91906
 C  -17.91113  -25.96196  -22.10700
 H  -18.32197  -26.57386  -21.50821
 C  -18.67163  -25.01352  -22.74075
 C  -18.03788  -24.04322  -23.54496
 C  -18.82023  -23.01611  -24.15249
 H  -18.40502  -22.31679  -24.65075
 C  -20.16641  -23.05981  -24.00826
 H  -20.67778  -22.37798  -24.42784
 C  -20.87009  -24.06070  -23.26086
 H  -21.81853  -24.07382  -23.20842
 C  -20.07463  -25.01352  -22.62274
 C  -21.55629  -26.84921  -22.42606
 C  -22.08952  -27.95063  -21.56066
 C  -22.88498  -28.92092  -22.11574
 H  -23.12537  -28.84662  -23.03359
 C  -23.32643  -29.95678  -21.42080
 H  -23.87713  -30.60801  -21.84039
 C  -22.97677  -30.11849  -19.99595
 H  -23.27398  -30.87900  -19.50643
 C  -22.23812  -29.17442  -19.39280
 C  -21.77483  -28.02930  -20.19263
 C  -18.47495  -17.66637  -27.43051
 C  -18.71097  -17.93298  -28.85973
 C  -19.15678  -16.89276  -29.63772
 H  -19.27916  -17.01951  -30.56868
 C  -19.44962  -15.59903  -29.04767
 H  -19.79053  -14.89535  -29.58964
 C  -19.23545  -15.38923  -27.71461
 H  -19.41465  -14.54132  -27.32562
 C  -18.76779  -16.41635  -26.94537
 C  -18.58859  -16.04484  -25.46370
 C  -17.47843  -16.85342  -23.45318
 C  -17.60955  -15.59466  -22.76698
 H  -18.07722  -14.86475  -23.15597
 C  -16.98454  -15.47665  -21.42080
 H  -17.04573  -14.64622  -20.96188
 C  -16.31145  -16.52999  -20.80453
 H  -15.92246  -16.42946  -19.94350
 C  -16.22841  -17.80623  -21.53444
 C  -16.82282  -17.97669  -22.81505
 C  -16.74852  -19.20923  -23.43569
 H  -17.12440  -19.31412  -24.30109
 C  -16.15848  -20.27131  -22.83691
 H  -16.13225  -21.11048  -23.28709
 C  -15.57718  -20.14019  -21.56066
 H  -15.21441  -20.90943  -21.13233
 C  -15.52473  -18.89454  -20.90506
 C  -13.81578  -19.20049  -19.18300
 C  -13.40931  -18.80275  -17.89802
 C  -12.16366  -19.24419  -17.38227
 H  -11.62169  -19.82987  -17.90239
 C  -11.73533  -18.84646  -16.15848
 H  -10.89178  -19.14804  -15.83942
 C  -12.51331  -17.99854  -15.35427
 H  -12.19425  -17.73630  -14.49761
 C  -13.71089  -17.54836  -15.78697
 C  -14.17418  -17.95484  -17.07632
Fe  -27.89818  -17.75378  -20.37795
 O  -26.50393  -16.69607  -21.39458
 O  -28.65868  -15.90498  -20.17952
 O  -23.86839  -13.93816  -23.12537
 O  -23.63238  -21.88409  -26.78802
 O  -18.19085  -21.85350  -29.22250
 O  -19.55451  -20.99247  -27.17264
 O  -26.77491  -17.93298  -18.69348
 O  -29.30554  -18.43561  -19.14367
 O  -25.01789  -19.00380  -14.96528
 O  -19.90417  -13.12521  -19.98284
 O  -15.09640  -14.49761  -16.68733
 O  -17.43909  -15.38049  -17.38227
 N  -24.67697  -16.05358  -23.19968
 H  -25.29324  -16.57807  -22.85876
 N  -21.87098  -20.70838  -26.01441
 H  -21.00995  -20.53792  -26.07997
 N  -24.73379  -17.97669  -17.00639
 H  -25.10967  -17.88927  -17.79749
 N  -19.66378  -14.97839  -18.71097
 H  -19.10870  -15.44168  -18.20834
 C  -26.73120  -15.38923  -21.39021
 C  -27.90255  -14.95216  -20.71275
 C  -28.23035  -13.62784  -20.70838
 H  -29.03019  -13.33938  -20.28005
 C  -27.41303  -12.71000  -21.31153
 H  -27.65779  -11.78778  -21.28531
 C  -26.30724  -13.05965  -21.92343
 H  -25.76528  -12.38656  -22.32117
 C  -25.89640  -14.42768  -22.00647
 C  -24.71194  -14.79919  -22.80631
 C  -23.78098  -16.66548  -24.10004
 C  -23.16034  -15.93120  -25.09656
 H  -23.30020  -14.99150  -25.14027
 C  -22.32991  -16.53436  -26.04063
 H  -21.91906  -16.02299  -26.72683
 C  -22.10700  -17.91113  -25.96196
 H  -21.50821  -18.32197  -26.57386
 C  -22.74075  -18.67163  -25.01352
 C  -23.54496  -18.03788  -24.04322
 C  -24.15249  -18.82023  -23.01611
 H  -24.65075  -18.40502  -22.31679
 C  -24.00826  -20.16641  -23.05981
 H  -24.42784  -20.67778  -22.37798
 C  -23.26086  -20.87009  -24.06070
 H  -23.20842  -21.81853  -24.07382
 C  -22.62274  -20.07463  -25.01352
 C  -22.42606  -21.55629  -26.84921
 C  -21.56066  -22.08952  -27.95063
 C  -22.11574  -22.88498  -28.92092
 H  -23.03359  -23.12537  -28.84662
 C  -21.42080  -23.32643  -29.95678
 H  -21.84039  -23.87713  -30.60801
 C  -19.99595  -22.97677  -30.11849
 H  -19.50643  -23.27398  -30.87900
 C  -19.39280  -22.23812  -29.17442
 C  -20.19263  -21.77483  -28.02930
 C  -27.43051  -18.47495  -17.66637
 C  -28.85973  -18.71097  -17.93298
 C  -29.63772  -19.15678  -16.89276
 H  -30.56868  -19.27916  -17.01951
 C  -29.04767  -19.44962  -15.59903
 H  -29.58964  -19.79053  -14.89535
 C  -27.71461  -19.23545  -15.38923
 H  -27.32562  -19.41465  -14.54132
 C  -26.94537  -18.76779  -16.41635
 C  -25.46370  -18.58859  -16.04484
 C  -23.45318  -17.47843  -16.85342
 C  -22.76698  -17.60955  -15.59466
 H  -23.15597  -18.07722  -14.86475
 C  -21.42080  -16.98454  -15.47665
 H  -20.96188  -17.04573  -14.64622
 C  -20.80453  -16.31145  -16.52999
 H  -19.94350  -15.92246  -16.42946
 C  -21.53444  -16.22841  -17.80623
 C  -22.81505  -16.82282  -17.97669
 C  -23.43569  -16.74852  -19.20923
 H  -24.30109  -17.12440  -19.31412
 C  -22.83691  -16.15848  -20.27131
 H  -23.28709  -16.13225  -21.11048
 C  -21.56066  -15.57718  -20.14019
 H  -21.13233  -15.21441  -20.90943
 C  -20.90506  -15.52473  -18.89454
 C  -19.18300  -13.81578  -19.20049
 C  -17.89802  -13.40931  -18.80275
 C  -17.38227  -12.16366  -19.24419
 H  -17.90239  -11.62169  -19.82987
 C  -16.15848  -11.73533  -18.84646
 H  -15.83942  -10.89178  -19.14804
 C  -15.35427  -12.51331  -17.99854
 H  -14.49761  -12.19425  -17.73630
 C  -15.78697  -13.71089  -17.54836
 C  -17.07632  -14.17418  -17.95484
