396       
YYC60_; Picture 1
Zn 2.481330 22.011850 16.082890
Zn 15.083230 34.349079 14.642660
P 4.323780 32.712471 13.871480
P 12.880160 23.762159 12.804030
O 3.060280 30.025230 13.821320
O 7.173460 32.409859 14.676580
O 4.261710 33.828911 11.095310
O 3.608830 33.598820 14.805050
O 14.013700 26.504009 12.420780
O 10.267470 24.063431 14.217560
O 12.373540 22.587521 10.118800
O 13.806940 22.883421 13.552110
N 15.556170 33.761761 16.664980
N 13.174350 33.851292 15.412760
N 1.576680 35.037560 5.358920
N 1.069820 36.470039 3.121530
N 1.808450 24.074619 15.560710
N 0.286790 21.863230 16.029850
N 13.286380 19.896700 1.710520
C 13.320670 19.195230 2.911140
C 13.332390 17.807520 2.905000
H 13.354710 17.328529 3.724180
C 13.311450 17.116791 1.699700
H 13.319200 16.164640 1.696090
C 13.277290 17.816469 0.498000
H 13.262730 17.346439 -0.324780
C 13.265530 19.208660 0.504500
H 13.241760 19.683170 -0.317570
N 13.342850 21.272329 4.034530
N 15.594990 32.405380 13.803280
N 17.114361 34.598869 13.944020
N 2.631210 22.530220 18.140940
N 4.548590 22.489941 16.271629
C 16.788340 33.654331 17.231541
H 17.556931 33.909489 16.733540
C 16.937830 33.175339 18.516239
H 17.804399 33.130581 18.902370
C 15.889340 32.776932 19.209110
H 16.000090 32.454620 20.093241
C 14.624350 32.835129 18.642550
H 13.859410 32.521770 19.111679
C 14.517710 33.372311 17.350630
C 13.198930 33.430500 16.632500
H 12.399800 33.161911 17.069151
C 11.923950 33.797581 14.788450
C 16.689520 32.396431 13.193410
H 16.980370 31.613041 12.738710
C 11.257490 32.629211 14.593580
H 11.659550 31.810011 14.860630
C 10.038080 32.611301 14.027020
H 9.585870 31.778669 13.954840
C 9.407190 33.739380 13.550670
C 10.104190 34.939079 13.691410
H 9.720820 35.740379 13.363020
C 11.386500 34.974899 14.322930
H 11.857400 35.798569 14.420370
C 8.068810 33.806530 12.944410
C 6.961060 33.224579 13.529020
C 5.681480 33.349930 13.020190
C 5.502810 33.896061 11.764360
C 6.546290 34.522770 11.125620
H 6.414570 34.961460 10.292010
C 7.821760 34.509338 11.739100
H 8.535640 34.979370 11.327710
C 3.474720 32.669498 11.291620
C 3.447790 31.975639 12.543840
C 2.879330 30.762510 12.670150
C 2.128560 30.238760 11.627230
H 1.709630 29.388220 11.695800
C 2.015540 31.022141 10.458010
H 1.422480 30.713270 9.783190
C 2.692490 32.186039 10.223450
C 2.483280 32.987331 8.949580
C 1.188210 33.148479 8.491270
H 0.477970 32.763500 8.989270
C 0.891470 33.824429 7.376180
H -0.012030 33.954250 7.109140
C 1.914890 34.325802 6.636400
C 3.204040 34.182549 7.055010
H 3.910640 34.576481 6.557010
C 3.484820 33.470791 8.180920
H 4.388780 33.309639 8.429920
C 1.718450 36.264130 5.391400
H 2.077190 36.667011 6.174490
C 0.768980 37.128090 2.024480
H 0.562950 36.622250 1.245000
C 0.733880 38.497898 1.927050
H 0.565240 38.950031 1.111480
C 0.969070 39.196239 3.168440
H 0.872890 40.140781 3.208130
C 1.339200 38.488949 4.308790
H 1.577590 38.950031 5.106310
C 1.355160 37.114658 4.269090
C 5.022270 31.259399 14.514190
C 6.389380 31.295210 14.893100
C 6.937300 30.131321 15.463280
H 7.833510 30.122370 15.773630
C 6.150490 29.016670 15.557110
H 6.500580 28.264620 16.019020
C 4.828060 28.909241 14.997760
C 4.344870 30.068649 14.463670
C 4.076350 27.669250 15.073540
C 3.290020 27.167879 14.066710
H 3.249930 27.637911 13.243930
C 2.558370 26.008459 14.200240
H 2.015460 25.721970 13.474890
C 2.594350 25.238510 15.387500
C 3.405750 25.708540 16.412371
H 3.473200 25.211651 17.220720
C 4.133760 26.917191 16.264410
H 4.673480 27.226070 16.986151
C 0.590400 24.146240 15.373060
H 0.204300 24.965441 15.080760
C -0.261140 22.982349 15.604020
C -1.651050 23.112169 15.448840
H -2.062680 23.913460 15.156540
C -2.392740 21.948280 15.762800
H -3.339100 21.975140 15.676190
C -1.820190 20.811251 16.181410
H -2.359930 20.068150 16.426800
C -0.428920 20.721720 16.253590
H 0.001860 19.902519 16.452061
C 13.315490 19.987570 4.063400
H 13.290400 19.557831 4.911440
C 13.609400 24.249201 8.895450
C 14.299110 25.422041 8.935140
H 14.719890 25.704060 8.130400
C 14.446330 26.254669 10.064660
H 14.828330 27.123110 10.014140
C 13.982230 25.704060 11.269970
C 13.431100 24.477501 11.259140
C 13.136190 23.738880 10.129620
C 11.281280 22.521271 10.970450
C 10.112480 21.988569 10.580710
H 10.022690 21.634930 9.703800
C 8.997430 21.957230 11.482880
H 8.220190 21.464821 11.241100
C 9.026110 22.624229 12.713450
C 10.197660 23.273319 13.081540
C 11.382910 23.080830 12.258750
C 7.796190 22.646610 13.557890
C 7.038550 21.469290 13.709450
H 7.275150 20.708290 13.193410
C 5.964530 21.375290 14.575540
H 5.474020 20.565041 14.676580
C 5.640390 22.525749 15.293670
C 6.312790 23.703070 15.124060
H 6.032420 24.468550 15.611240
C 7.395470 23.806030 14.261580
H 7.851790 24.629700 14.142500
C 4.863560 22.865959 17.444460
H 5.761140 23.107691 17.642929
C 3.865200 22.924160 18.476549
C 4.144610 23.488199 19.728760
H 5.026690 23.761259 19.948891
C 3.111160 23.640400 20.648979
H 3.275700 23.998520 21.511459
C 1.884910 23.268850 20.280899
H 1.159170 23.421049 20.872721
C 1.644710 22.677950 19.064760
H 0.770830 22.360121 18.866280
C 11.068770 25.207170 14.239930
C 12.310090 25.211651 13.521800
C 12.931430 26.402399 13.323320
C 12.553510 27.602100 13.976500
C 11.398800 27.458851 14.774020
H 11.119800 28.219860 15.264800
C 10.639340 26.317341 14.911150
H 9.853430 26.303909 15.445240
C 13.309320 28.806280 13.882670
C 13.741050 29.401649 12.673750
H 13.498100 28.985340 11.854580
C 14.456750 30.498390 12.623230
H 14.747150 30.825180 11.782410
C 14.808180 31.205681 13.810500
C 14.350930 30.677450 15.004980
H 14.557410 31.116150 15.824150
C 13.586910 29.504610 15.019410
H 13.250920 29.186781 15.845800
C 17.512341 33.596130 13.189800
C 18.725849 33.681190 12.460840
H 19.012150 32.947041 11.926750
C 19.477110 34.813740 12.518580
H 20.289909 34.871941 12.031410
C 19.064989 35.879150 13.283620
H 19.575090 36.675961 13.330540
C 17.852850 35.735901 14.001760
H 17.549690 36.456619 14.539450
C 12.860030 23.868700 6.513700
H 12.447020 24.719231 6.549790
C 13.511880 23.358379 7.632400
C 14.117260 22.109430 7.574660
H 14.562160 21.764740 8.339710
C 14.072160 21.366329 6.401830
H 14.485620 20.511320 6.362140
C 13.420310 21.876659 5.283140
C 12.815390 23.125601 5.337270
H 12.370030 23.470289 4.575830
Zn 13.473230 22.011850 1.960610
Zn 0.871330 34.349079 3.400840
P 11.630780 32.712471 4.172020
P 3.074400 23.762159 5.239470
O 12.894280 30.025230 4.222180
O 8.781100 32.409859 3.366920
O 11.692840 33.828911 6.948190
O 12.345720 33.598820 3.238450
O 1.940850 26.504009 5.622720
O 5.687090 24.063431 3.825940
O 3.581020 22.587521 7.924710
O 2.147610 22.883421 4.491390
N 0.398380 33.761761 1.378520
N 2.780210 33.851292 2.630740
N 14.377880 35.037560 12.684580
N 14.884740 36.470039 14.921980
N 14.146110 24.074619 2.482790
N 15.667770 21.863230 2.013650
N 2.668180 19.896700 16.332979
C 2.633880 19.195230 15.132360
C 2.622160 17.807520 15.138500
H 2.599850 17.328529 14.319320
C 2.643100 17.116791 16.343800
H 2.635350 16.164640 16.347410
C 2.677260 17.816469 17.545500
H 2.691830 17.346439 18.368280
C 2.689020 19.208660 17.539000
H 2.712800 19.683170 18.361071
N 2.611710 21.272329 14.008970
N 0.359560 32.405380 4.240220
N -1.159810 34.598869 4.099480
N 13.323350 22.530220 -0.097430
N 11.405970 22.489941 1.771870
C -0.833780 33.654331 0.811960
H -1.602370 33.909489 1.309960
C -0.983270 33.175339 -0.472740
H -1.849850 33.130581 -0.858870
C 0.065220 32.776932 -1.165610
H -0.045530 32.454620 -2.049740
C 1.330210 32.835129 -0.599040
H 2.095150 32.521770 -1.068170
C 1.436840 33.372311 0.692870
C 2.755620 33.430500 1.411000
H 3.554750 33.161911 0.974350
C 4.030610 33.797581 3.255050
C -0.734970 32.396431 4.850090
H -1.025810 31.613041 5.304790
C 4.697070 32.629211 3.449920
H 4.295010 31.810011 3.182870
C 5.916470 32.611301 4.016480
H 6.368680 31.778669 4.088660
C 6.547370 33.739380 4.492830
C 5.850370 34.939079 4.352090
H 6.233730 35.740379 4.680480
C 4.568050 34.974899 3.720570
H 4.097160 35.798569 3.623140
C 7.885750 33.806530 5.099090
C 8.993500 33.224579 4.514480
C 10.273080 33.349930 5.023310
C 10.451740 33.896061 6.279140
C 9.408270 34.522770 6.917880
H 9.539990 34.961460 7.751490
C 8.132790 34.509338 6.304400
H 7.418910 34.979370 6.715790
C 12.479840 32.669498 6.751880
C 12.506770 31.975639 5.499660
C 13.075220 30.762510 5.373350
C 13.826000 30.238760 6.416270
H 14.244930 29.388220 6.347700
C 13.939020 31.022141 7.585490
H 14.532070 30.713270 8.260310
C 13.262060 32.186039 7.820050
C 13.471270 32.987331 9.093920
C 14.766350 33.148479 9.552230
H 15.476590 32.763500 9.054230
C 15.063080 33.824429 10.667320
H 15.966590 33.954250 10.934360
C 14.039670 34.325802 11.407100
C 12.750510 34.182549 10.988490
H 12.043920 34.576481 11.486490
C 12.469730 33.470791 9.862580
H 11.565770 33.309639 9.613580
C 14.236110 36.264130 12.652100
H 13.877370 36.667011 11.869010
C 15.185570 37.128090 16.019020
H 15.391600 36.622250 16.798500
C 15.220670 38.497898 16.116461
H 15.389320 38.950031 16.932020
C 14.985480 39.196239 14.875060
H 15.081670 40.140781 14.835370
C 14.615360 38.488949 13.734710
H 14.376960 38.950031 12.937190
C 14.599400 37.114658 13.774410
C 10.932290 31.259399 3.529310
C 9.565180 31.295210 3.150390
C 9.017250 30.131321 2.580220
H 8.121040 30.122370 2.269870
C 9.804060 29.016670 2.486390
H 9.453980 28.264620 2.024480
C 11.126490 28.909241 3.045740
C 11.609690 30.068649 3.579830
C 11.878200 27.669250 2.969960
C 12.664530 27.167879 3.976790
H 12.704630 27.637911 4.799570
C 13.396190 26.008459 3.843270
H 13.939090 25.721970 4.568610
C 13.360200 25.238510 2.656000
C 12.548800 25.708540 1.631130
H 12.481360 25.211651 0.822780
C 11.820800 26.917191 1.779090
H 11.281080 27.226070 1.057350
C 15.364150 24.146240 2.670440
H 15.750260 24.965441 2.962740
C 16.215700 22.982349 2.439480
C 17.605610 23.112169 2.594660
H 18.017241 23.913460 2.886960
C 18.347300 21.948280 2.280700
H 19.293650 21.975140 2.367310
C 17.774750 20.811251 1.862090
H 18.314489 20.068150 1.616700
C 16.383471 20.721720 1.789910
H 15.952690 19.902519 1.591440
C 2.639060 19.987570 13.980100
H 2.664160 19.557831 13.132060
C 2.345160 24.249201 9.148060
C 1.655440 25.422041 9.108360
H 1.234670 25.704060 9.913100
C 1.508230 26.254669 7.978840
H 1.126220 27.123110 8.029360
C 1.972320 25.704060 6.773530
C 2.523450 24.477501 6.784360
C 2.818370 23.738880 7.913880
C 4.673270 22.521271 7.073050
C 5.842080 21.988569 7.462790
H 5.931860 21.634930 8.339710
C 6.957130 21.957230 6.560620
H 7.734360 21.464821 6.802400
C 6.928440 22.624229 5.330050
C 5.756900 23.273319 4.961960
C 4.571650 23.080830 5.784750
C 8.158370 22.646610 4.485610
C 8.916010 21.469290 4.334050
H 8.679400 20.708290 4.850090
C 9.990030 21.375290 3.467960
H 10.480530 20.565041 3.366920
C 10.314160 22.525749 2.749830
C 9.641770 23.703070 2.919440
H 9.922130 24.468550 2.432260
C 8.559080 23.806030 3.781920
H 8.102770 24.629700 3.901010
C 11.091000 22.865959 0.599040
H 10.193420 23.107691 0.400570
C 12.089350 22.924160 -0.433040
C 11.809940 23.488199 -1.685260
H 10.927860 23.761259 -1.905390
C 12.843400 23.640400 -2.605480
H 12.678850 23.998520 -3.467960
C 14.069640 23.268850 -2.237390
H 14.795380 23.421049 -2.829220
C 14.309850 22.677950 -1.021260
H 15.183720 22.360121 -0.822780
C 4.885780 25.207170 3.803570
C 3.644470 25.211651 4.521700
C 3.023130 26.402399 4.720180
C 3.401050 27.602100 4.067010
C 4.555760 27.458851 3.269480
H 4.834750 28.219860 2.778700
C 5.315220 26.317341 3.132350
H 6.101130 26.303909 2.598260
C 2.645240 28.806280 4.160830
C 2.213510 29.401649 5.369750
H 2.456460 28.985340 6.188920
C 1.497810 30.498390 5.420270
H 1.207410 30.825180 6.261100
C 1.146370 31.205681 4.233010
C 1.603630 30.677450 3.038530
H 1.397150 31.116150 2.219350
C 2.367650 29.504610 3.024090
H 2.703630 29.186781 2.197700
C -1.557790 33.596130 4.853700
C -2.771300 33.681190 5.582660
H -3.057590 32.947041 6.116750
C -3.522550 34.813740 5.524920
H -4.335360 34.871941 6.012090
C -3.110440 35.879150 4.759870
H -3.620540 36.675961 4.712960
C -1.898290 35.735901 4.041740
H -1.595130 36.456619 3.504050
C 3.094530 23.868700 11.529800
H 3.507530 24.719231 11.493710
C 2.442680 23.358379 10.411100
C 1.837300 22.109430 10.468840
H 1.392400 21.764740 9.703800
C 1.882400 21.366329 11.641670
H 1.468930 20.511320 11.681360
C 2.534250 21.876659 12.760360
C 3.139170 23.125601 12.706230
H 3.584520 23.470289 13.467670
