396
yyc70_; Picture 1
Zn   19.43055   21.60218   22.49689
Zn   22.63655   10.42678    8.82080
Zn    7.79388    8.94023   17.80524
Zn   10.72603   23.32076    7.42687
 P   11.69462   12.43643    8.07962
 O    9.93202   12.31740   10.48606
 O   12.25785   15.29794    7.47801
 O   14.29856   11.11774    8.81358
 O   11.04064   11.78732    6.90949
 N    5.70406    9.13227   17.66627
 N    7.46725    9.75069   15.75616
 N   11.43325   21.36597    6.78917
 N   11.75640   23.66298    5.55286
 N   20.48872    9.95064    8.91586
 N   22.70257    8.26275    9.09634
 C    4.81662    8.78818   18.61079
 H    5.14476    8.52012   19.46069
 C    3.45023    8.81143   18.40925
 H    2.85709    8.53527   19.09909
 C    2.96562    9.23456   17.19701
 H    2.02931    9.27576   17.04032
 C    3.85726    9.60655   16.20135
 H    3.54852    9.90511   15.35275
 C    5.20996    9.53215   16.48109
 C    6.22364    9.86694   15.47340
 H    5.95657   10.16718   14.61325
 C    8.37418   10.12733   14.74545
 C    8.94074    9.04392   14.11376
 H    8.69638    8.16278   14.36406
 C    9.86406    9.24851   13.11208
 H   10.24260    8.49524   12.67751
 C   10.25940   10.51327   12.72104
 C    9.66325   11.59203   13.35874
 H    9.91346   12.47759   13.11705
 C    8.71133   11.40603   14.34237
 H    8.28592   12.15545   14.74055
 C   11.25336   10.67601   11.63212
 C   11.03475   11.49438   10.52516
 C   12.02661   11.52693    9.53852
 C   13.24434   10.87130    9.68591
 C   13.45494   10.04828   10.78385
 H   14.26884    9.57084   10.88591
 C   12.44595    9.95064   11.72838
 H   12.56885    9.36629   12.46983
 C   10.07418   13.59610    9.93258
 C    9.42330   14.70276   10.47402
 H    8.79125   14.57624   11.17246
 C    9.68095   15.97682   10.01680
 H    9.22043   16.71600   10.39548
 C   10.61759   16.19071    8.99707
 C   11.26723   15.09335    8.43457
 C   10.96397   13.80534    8.87976
 C   10.85145   17.59496    8.55790
 C    9.79051   18.48772    8.41953
 H    8.92140   18.22110    8.69711
 C    9.97174   19.74318    7.88409
 H    9.23207   20.33296    7.79500
 C   11.23931   20.14771    7.48102
 C   12.32465   19.31074    7.68857
 H   13.20282   19.59703    7.46646
 C   12.11421   18.04599    8.22099
 H   12.85895   17.47057    8.35937
 C   12.11966   21.31482    5.68822
 H   12.47409   20.49868    5.35842
 C   12.31865   22.58422    4.97531
 C   13.03132   22.65862    3.79616
 H   13.44370   21.88433    3.42842
 C   13.13083   23.89083    3.15845
 H   13.59461   23.96797    2.33247
 C   12.54751   25.00214    3.73900
 H   12.60104   25.85422    3.32233
 C   11.88833   24.84404    4.94222
 H   11.51101   25.61145    5.35535
 C   13.38746   14.48887    7.52614
 C   14.64651   15.02825    7.33061
 H   14.75092   15.92227    7.03360
 C   15.75317   14.22848    7.58028
 H   16.61804   14.59303    7.42561
 C   15.65848   12.91723    8.04954
 C   14.38784   12.36855    8.22099
 C   13.27699   13.14972    7.92019
 C   16.90123   12.16395    8.35335
 C   18.00660   12.27090    7.51110
 H   17.95803   12.84692    6.75791
 C   19.16652   11.55948    7.73971
 H   19.89918   11.65526    7.14285
 C   19.28307   10.70856    8.83163
 C   18.19778   10.61556    9.69494
 H   18.26121   10.05870   10.46464
 C   17.02369   11.31769    9.45430
 H   16.29091   11.21767   10.05067
 C   20.37567    8.74168    9.27080
 H   19.49977    8.41224    9.43438
 C   21.48727    7.80707    9.45129
 C   21.28632    6.52836    9.95664
 H   20.42038    6.23240   10.20962
 C   22.38769    5.69604   10.07997
 H   22.28760    4.81922   10.43248
 C   23.63405    6.15172    9.68291
 H   24.39978    5.59017    9.74520
 C   23.73590    7.43508    9.19259
 H   24.58836    7.74690    8.91119
 P   18.58342   11.11495   19.03794
 O   20.26010   11.76407   16.68263
 O   17.81243   13.66120   20.36148
 O   16.05308    9.83904   17.99114
 O   19.29152   10.25753   20.01254
 N   24.83051   10.67136    9.02114
 N   22.95934   10.64346   10.95832
 N   18.84230   19.49674   22.73783
 N   18.47782   21.57056   24.47047
 N    9.81918    8.49059   17.57603
 N    7.62693    6.94685   17.02254
 C   25.77663   10.68531    8.07661
 H   25.49861   10.63932    7.16905
 C   27.13254   10.75041    8.32928
 H   27.76132   10.75603    7.61914
 C   27.54615   10.81551    9.63779
 H   28.47129   10.86428    9.84931
 C   26.59324   10.81085   10.64548
 H   26.85516   10.86149   11.55749
 C   25.25373   10.73181   10.29956
 C   24.18989   10.69461   11.30424
 H   24.41729   10.70395   12.22750
 C   21.96009   10.58301   11.97203
 C   22.09106    9.69025   13.01883
 H   22.81832    9.07958   13.02527
 C   21.17883    9.68095   14.05661
 H   21.31534    9.07782   14.77785
 C   20.07548   10.51327   14.08368
 C   19.92700   11.37813   13.00379
 H   19.17110   11.95016   12.96712
 C   20.85760   11.41533   11.97805
 H   20.73442   12.02920   11.26228
 C   19.06919   10.36447   15.16658
 C   19.24083   10.88060   16.44801
 C   18.28139   10.57836   17.41058
 C   17.11211    9.89019   17.10376
 C   16.92741    9.38801   15.83436
 H   16.14321    8.90363   15.60696
 C   17.92974    9.61120   14.89886
 H   17.83208    9.23270   14.03459
 C   20.05518   12.83353   17.53993
 C   20.62825   14.07504   17.31132
 H   21.18092   14.21565   16.55067
 C   20.38450   15.11660   18.19568
 H   20.85123   15.93543   18.08201
 C   19.48214   15.00035   19.24850
 C   18.85741   13.77280   19.45906
 C   19.21530   12.68939   18.65291
 C   19.28079   16.19536   20.12083
 C   20.38621   16.93468   20.55399
 H   21.25122   16.68378   20.25683
 C   20.26142   18.01809   21.39925
 H   21.03238   18.50395   21.66989
 C   18.99582   18.39473   21.85648
 C   17.88276   17.69260   21.40527
 H   17.01337   17.95978   21.67885
 C   18.03270   16.60454   20.56001
 H   17.26205   16.13087   20.27241
 C   18.22763   19.30609   23.82675
 H   17.90957   18.42960   24.01472
 C   17.98190   20.36625   24.81038
 C   17.25728   20.14771   25.97449
 H   16.94206   19.28261   26.20921
 C   17.01255   21.24972   26.78065
 H   16.50212   21.14245   27.57565
 C   17.49318   22.49123   26.45578
 H   17.32685   23.24227   27.01110
 C   18.22841   22.60747   25.28866
 H   18.57472   23.46235   25.05605
 C   16.75508   12.81958   20.08474
 C   15.46471   13.16367   20.43066
 H   15.29686   13.93884   20.95130
 C   14.41968   12.35925   20.00653
 H   13.53784   12.58928   20.27695
 C   14.58861   11.22934   19.20939
 C   15.88698   10.87595   18.87249
 C   16.94852   11.63852   19.35378
 C   13.37323   10.54117   18.69803
 C   12.25319   10.42492   19.48914
 H   12.25921   10.82476   20.35245
 C   11.12176    9.75069   19.07704
 H   10.37367    9.69136   19.65898
 C   11.05749    9.15551   17.83472
 C   12.16718    9.30896   16.98946
 H   12.14670    8.94186   16.11342
 C   13.29356    9.99714   17.42261
 H   14.03129   10.09236   16.83213
 C    9.95419    7.37928   16.94133
 H   10.82917    7.09815   16.70152
 C    8.82300    6.52836   16.57434
 C    8.98871    5.35195   15.85542
 H    9.84978    5.10454   15.53735
 C    7.89068    4.53358   15.59974
 H    7.98172    3.72754   15.10058
 C    6.65059    4.93347   16.09907
 H    5.87629    4.39651   15.97517
 C    6.58485    6.13778   16.78190
 H    5.73342    6.41184   17.10620
 P   20.82225   20.94283   11.46066
 O   21.17943   20.26396   14.34839
 O   20.63510   18.37148    9.94461
 O   18.17390   22.37498   11.19596
 O   21.93735   21.77050   10.94328
 N   21.31486   21.31947   23.30335
 N   20.65431   21.27297   20.71041
 N   22.25689   12.49409    8.26311
 N   22.87701   10.36912    6.68388
 N   12.54365   23.89083    8.42855
 N   10.34944   25.42062    7.71865
 C   21.62184   21.32412   24.60583
 H   20.91415   21.41191   25.23500
 C   22.91598   21.20787   25.08712
 H   23.09286   21.22341   26.02049
 C   23.92089   21.06373   24.19072
 H   24.81594   20.96715   24.49035
 C   23.63968   21.06373   22.82206
 H   24.33462   20.97785   22.18213
 C   22.32323   21.19393   22.42500
 C   21.89890   21.18928   21.02024
 H   22.55091   21.12130   20.33474
 C   20.31467   21.24972   19.33573
 C   21.19842   20.76614   18.37917
 H   22.01031   20.35272   18.65023
 C   20.89317   20.88239   17.03458
 H   21.50426   20.53230   16.39525
 C   19.73166   21.48686   16.58938
 C   18.84705   21.92860   17.56700
 H   18.02835   22.32955   17.30031
 C   19.12715   21.80305   18.91160
 H   18.49145   22.10064   19.55361
 C   19.44528   21.71006   15.14251
 C   20.16361   21.16603   14.08067
 C   19.80264   21.49151   12.76616
 C   18.66208   22.24479   12.47437
 C   17.94140   22.77487   13.54223
 H   17.17221   23.30899   13.38067
 C   18.34724   22.52378   14.83569
 H   17.86252   22.91911   15.55019
 C   21.43797   19.21310   13.46101
 C   21.82746   17.97624   13.92726
 H   22.05989   17.85809   14.84246
 C   21.87571   16.90678   13.05794
 H   22.16177   16.06061   13.38638
 C   21.52239   17.01838   11.71033
 C   21.10812   18.25523   11.23506
 C   21.13950   19.34794   12.10439
 C   21.69859   15.81872   10.83800
 C   22.78468   14.96780   10.97637
 H   23.42264   15.15105   11.65802
 C   22.97936   13.87044   10.16419
 H   23.73880   13.31428   10.28713
 C   22.05862   13.58215    9.16251
 C   20.94455   14.40982    9.04219
 H   20.28930   14.21142    8.38271
 C   20.77255   15.51183    9.86339
 H   20.00554   16.06084    9.75372
 C   22.40439   12.67079    7.01778
 H   22.27928   13.53914    6.65843
 C   22.75797   11.57343    6.11235
 C   23.03096   11.80592    4.77076
 H   22.89976   12.66488    4.38841
 C   23.49646   10.75041    3.99770
 H   23.70613   10.87707    3.07874
 C   23.65198    9.50425    4.59931
 H   23.98920    8.76916    4.10550
 C   23.31083    9.36011    5.91683
 H   23.38547    8.49780    6.30556
 C   19.57947   19.24565    9.72803
 C   18.55740   18.92016    8.84667
 H   18.59532   18.11634    8.34393
 C   17.47982   19.78038    8.70529
 H   16.79982   19.56225    8.07820
 C   17.35503   20.96143    9.44828
 C   18.36316   21.28227   10.36273
 C   19.48315   20.44530   10.44094
 C   16.14284   21.79840    9.21666
 C   15.64037   21.97975    7.92921
 H   16.11751   21.62199    7.18884
 C   14.45900   22.66792    7.71264
 H   14.13017   22.75873    6.82502
 C   13.75176   23.22125    8.75944
 C   14.25880   23.07711   10.03786
 H   13.79388   23.45658   10.77326
 C   15.43782   22.37963   10.26045
 H   15.77068   22.30096   11.14689
 C   12.52835   25.15558    8.64814
 H   13.28234   25.54937    9.07564
 C   11.40986   26.02510    8.27815
 C   11.48689   27.41540    8.39245
 H   12.22730   27.82119    8.82967
 C   10.46961   28.20587    7.85401
 H   10.51548   29.15495    7.90966
 C    9.39452   27.59209    7.24338
 H    8.68863   28.10074    6.86133
 C    9.38343   26.21574    7.20728
 H    8.64360   25.79112    6.78883
 P    9.28911   19.95847   18.03325
 O    8.94439   19.99892   15.04626
 O    9.54126   17.10673   18.88453
 O   11.83821   21.33807   18.67396
 O    8.13394   20.58945   18.71006
 N    8.69651   23.21195    6.58462
 N    9.56476   22.62607    9.17154
 N    8.03729   10.86665   18.92062
 N    7.67803    8.38364   19.96441
 N   17.51664   22.31453   21.64591
 N   19.65660   23.72808   22.60548
 C    8.21646   23.46304    5.36335
 H    8.84245   23.59073    4.65886
 C    6.87547   23.54674    5.05352
 H    6.59403   23.72055    4.16166
 C    5.95178   23.37469    6.06423
 H    5.02091   23.42473    5.88239
 C    6.40815   23.13290    7.35167
 H    5.79511   23.02847    8.06966
 C    7.78847   23.04456    7.57126
 C    8.32509   22.72372    8.89480
 H    7.70454   22.58190    9.59925
 C    9.82625   22.25409   10.51012
 C    9.03275   21.39852   11.25912
 H    8.30160   20.95013   10.84865
 C    9.30459   21.18928   12.60071
 H    8.73652   20.62093   13.10420
 C   10.37709   21.78910   13.22338
 C   11.19279   22.59352   12.44429
 H   11.96209   22.98955   12.83799
 C   10.91613   22.83997   11.11775
 H   11.47989   23.41803   10.61633
 C   10.65460   21.63566   14.68228
 C    9.91705   20.84519   15.54860
 C   10.27431   20.85449   16.90222
 C   11.38861   21.55196   17.37449
 C   12.13023   22.33778   16.51118
 H   12.87750   22.84141   16.81282
 C   11.72957   22.36103   15.19365
 H   12.22008   22.91004   14.59231
 C    8.76266   18.74812   15.64486
 C    8.43099   17.62286   14.89285
 H    8.22163   17.71195   13.97163
 C    8.40433   16.37670   15.49145
 H    8.15168   15.62459   14.96684
 C    8.73275   16.16746   16.83304
 C    9.06590   17.29272   17.60009
 C    9.02526   18.56677   17.00750
 C    8.62092   14.78181   17.36245
 C    7.58921   13.95879   16.92027
 H    6.98765   14.28093   16.26121
 C    7.41784   12.68009   17.41961
 H    6.71439   12.13964   17.08376
 C    8.25944   12.17791   18.40925
 C    9.31482   12.98232   18.83640
 H    9.92086   12.66279   19.49363
 C    9.48126   14.24708   18.30397
 H   10.21556   14.77381   18.59678
 C    7.86649   10.74576   20.17197
 H    7.88337   11.52400   20.72052
 C    7.64618    9.43915   20.79163
 C    7.31279    9.30896   22.12419
 H    7.34063   10.06121   22.70243
 C    6.93470    8.06281   22.60548
 H    6.66404    7.95888   23.51045
 C    6.95928    6.96545   21.75120
 H    6.71519    6.10067   22.05474
 C    7.34580    7.18399   20.45172
 H    7.37926    6.43681   19.86353
 C   10.58049   17.92509   19.29663
 C   11.60984   17.41826   20.05165
 H   11.60214   16.51043   20.32998
 C   12.65363   18.25058   20.40359
 H   13.34496   17.88897   20.94862
 C   12.76188   19.58508   20.01254
 C   11.71676   20.07797   19.23346
 C   10.62538   19.26890   18.91761
 C   13.96937   20.35696   20.40961
 C   14.52720   20.18026   21.67599
 H   14.09653   19.60898   22.30131
 C   15.69007   20.82194   22.03696
 H   16.05649   20.67361   22.90132
 C   16.33813   21.68216   21.15560
 C   15.78794   21.89140   19.90726
 H   16.20403   22.49155   19.29846
 C   14.63136   21.23112   19.54630
 H   14.27520   21.37373   18.67826
 C   17.45365   23.60254   21.70006
 H   16.66780   24.04213   21.39540
 C   18.56597   24.40231   22.22045
 C   18.46661   25.77866   22.39492
 H   17.70908   26.24941   22.07056
 C   19.48536   26.45288   23.05067
 H   19.41244   27.38624   23.21100
 C   20.59978   25.76471   23.46879
 H   21.30861   26.20044   23.92529
 C   20.64652   24.41161   23.19807
 H   21.42880   23.93258   23.44602
