281       
B2
N -3.816000 18.549000 13.734000
N -7.880000 21.628000 10.355000
N -3.035000 12.749000 10.974000
N 0.930000 17.045000 9.099000
N -8.566000 15.277000 10.922000
N -7.546000 12.540000 5.503000
N -5.883000 16.726999 1.730000
N -1.169000 13.880000 4.472000
N -11.044000 18.025999 5.176000
N -7.017000 22.657000 4.653000
N -2.541000 22.981001 9.067000
N -0.450000 20.325001 3.935000
C -3.494000 14.894000 15.973000
C -3.571000 16.063999 15.117000
C -2.808000 18.399000 14.620000
C -9.189000 21.853001 10.304000
C -9.141000 25.238001 8.598000
C -8.692000 24.030001 9.166000
C -6.105000 11.727000 13.813000
C -5.107000 12.153000 12.869000
C -3.548000 11.536000 10.983000
C 1.876000 17.836000 9.530000
C 2.835000 18.027000 7.198000
C 3.880000 18.458000 6.366000
C -8.041000 15.516000 15.220000
C -8.172000 15.484000 13.725000
C -9.572000 15.780000 11.675000
C -7.023000 11.535000 4.755000
C -8.214000 12.586000 2.732000
C -8.500000 12.508000 1.331000
C -9.831000 16.573000 0.199000
C -8.542000 16.660000 0.745000
C -6.155000 17.424999 0.604000
C -0.520000 12.776000 4.973000
C 1.555000 14.199000 5.243000
C 2.974000 14.259000 5.505000
C -12.329000 14.324000 3.413000
C -11.806000 15.520000 4.061000
C -12.230000 17.549999 5.521000
C -6.357000 23.452999 3.796000
C -5.860000 25.117001 5.638000
C -5.339000 26.381001 6.002000
C -5.054000 26.087999 10.579000
C -4.225000 25.042999 10.064000
C -2.242000 23.534000 10.258000
C -0.111000 20.455000 2.626000
C 1.309000 18.386000 2.766000
C 2.290000 17.523001 2.165000
C -4.292000 19.693001 13.046000
C -7.216000 20.457001 10.872000
C -1.950000 13.278000 10.259000
C -0.178000 16.541000 9.822000
C -8.538000 15.160000 9.515000
C -7.408000 12.715000 6.928000
C -4.634000 16.658001 2.394000
C -2.410000 13.965000 3.841000
C -10.435000 19.254999 5.525000
C -7.606000 21.415001 4.384000
C -1.787000 22.038000 8.329000
C -1.254000 21.170000 4.713000
C -2.529000 14.887000 16.959999
C -2.721000 17.172001 15.329000
C -1.792000 17.084999 16.395000
C -1.672000 15.955000 17.188000
C -3.771000 20.931000 13.265000
C -5.403000 19.486000 12.215000
C -5.929000 18.238001 11.880000
C -6.038000 20.652000 11.669000
C -7.026000 18.100000 11.113000
C -7.689000 19.243999 10.600000
C -5.467000 21.927000 11.898000
C -4.377000 22.040001 12.641000
C -9.590000 23.139999 9.716000
C -10.987000 23.441000 9.689000
C -11.403000 24.593000 9.141000
C -10.494000 25.504999 8.597000
C -6.537000 10.436000 13.863000
C -4.628000 11.199000 11.964000
C -5.094000 9.902000 12.000000
C -6.027000 9.517000 12.888000
C -1.178000 12.448000 9.448000
C -1.650000 14.636000 10.371000
C -2.400000 15.525000 11.191000
C -0.514000 15.177000 9.680000
C -2.041000 16.819000 11.287000
C -0.927000 17.351999 10.618000
C 0.253000 14.278000 8.836000
C -0.084000 13.017000 8.717000
C 2.897000 18.329000 8.577000
C 3.988000 19.054001 9.077000
C 5.002000 19.504000 8.227000
C 4.894000 19.153999 6.839000
C -9.160000 15.894000 15.923000
C -9.346000 15.850000 13.164000
C -10.455000 16.219999 13.915000
C -10.342000 16.260000 15.323000
C -9.139000 16.138000 8.749000
C -7.909000 14.086000 8.923000
C -7.197000 13.143000 9.690000
C -7.975000 13.900000 7.483000
C -6.643000 12.068000 9.100000
C -6.785000 11.823000 7.709000
C -8.642000 14.886000 6.733000
C -9.207000 15.983000 7.315000
C -7.451000 11.603000 3.315000
C -6.890000 10.555000 2.491000
C -8.012000 11.494000 0.572000
C -7.195000 10.515000 1.154000
C -10.106000 17.287001 -0.979000
C -7.502000 17.357000 0.134000
C -7.845000 18.070999 -1.094000
C -9.077000 18.009001 -1.591000
C -3.921000 17.759001 2.676000
C -4.147000 15.375000 2.781000
C -4.849000 14.200000 2.464000
C -2.880000 15.253000 3.442000
C -4.347000 12.984000 2.817000
C -3.149000 12.866000 3.479000
C -2.149000 16.462999 3.678000
C -2.652000 17.655001 3.326000
C 0.895000 12.993000 5.307000
C 1.630000 11.834000 5.652000
C 3.612000 13.070000 5.824000
C 2.958000 11.874000 5.909000
C -13.583000 13.902000 3.746000
C -12.612000 16.250999 4.933000
C -13.931000 15.744000 5.182000
C -14.381000 14.599000 4.612000
C -10.946000 19.990999 6.567000
C -9.334000 19.704000 4.822000
C -8.721000 18.886999 3.850000
C -8.706000 20.957001 5.083000
C -7.607000 19.326000 3.209000
C -7.015000 20.594999 3.478000
C -9.280000 21.743000 6.118000
C -10.334000 21.263000 6.832000
C -5.793000 24.729000 4.275000
C -5.206000 25.587000 3.348000
C -4.704000 27.194000 5.065000
C -4.632000 26.781000 3.673000
C -4.633000 26.718000 11.763000
C -3.112000 24.615000 10.714000
C -2.729000 25.292999 11.912000
C -3.475000 26.312000 12.422000
C -0.977000 21.163000 8.940000
C -1.934000 22.037001 6.906000
C -2.819000 22.895000 6.273000
C -2.976000 22.864000 4.906000
C -2.183000 21.981001 4.111000
C -0.267000 20.302000 6.761000
C -0.191000 20.267000 8.128000
C 0.782000 19.424999 2.060000
C 1.191000 19.632999 0.730000
C 2.626000 17.725000 0.807000
C 2.074000 18.781000 0.097000
C -1.040000 21.169001 6.056000
O -6.871000 15.205000 15.695000
O -6.568000 12.676000 14.671000
O -4.331000 13.924000 15.735000
O -4.761000 13.417000 12.898000
O -4.529000 16.014000 14.182000
O -7.048000 15.080000 13.090000
O -11.512000 13.714000 2.559000
O -9.281000 13.461000 0.843000
O -10.750000 15.856000 0.839000
O -8.355000 15.968000 1.887000
O -10.583000 15.851000 3.712000
O -8.747000 13.602000 3.396000
O -5.510000 26.764999 7.272000
O -8.212000 26.069000 8.071000
O -6.161000 26.420000 9.961000
O -7.361000 23.851999 9.157000
O -4.697000 24.482000 8.911000
O -6.409000 24.382000 6.565000
O 3.560000 15.415000 5.367000
O 3.771000 18.136999 5.042000
O 2.796000 16.615000 2.966000
O 1.050000 18.223000 3.984000
O 1.855000 17.323000 6.663000
O 0.990000 15.336000 4.875000
O -2.009000 19.339001 14.848000
O -10.041000 21.038000 10.717000
O -3.202000 10.628000 10.172000
O 1.941000 18.216000 10.751000
O -10.634000 16.193001 11.181000
O -6.325000 10.641000 5.198000
O -5.238000 18.079000 0.038000
O -1.073000 11.685000 5.025000
O -13.044000 18.160000 6.244000
O -6.233000 23.155001 2.557000
O -1.260000 23.150000 10.919000
O -0.578000 21.360001 1.934000
Ga -5.676000 14.390000 14.385000
Ga -9.888000 14.737000 2.208000
Ga -6.397000 25.361000 8.322000
Ga 2.336000 16.815001 4.806000
H -4.244000 17.822001 13.557000
H -7.373000 22.250000 10.045000
H -3.433000 13.310000 11.488000
H 0.987000 16.802999 8.276000
H -7.872000 14.996000 11.343000
H -8.004000 13.133000 5.081000
H -6.532000 16.285999 2.080000
H -0.746000 14.623000 4.559000
H -10.576000 17.514000 4.667000
H -7.086000 22.944000 5.461000
H -3.282000 23.230000 8.712000
H -0.131000 19.636000 4.340000
H -1.239000 17.812000 16.566999
H -1.031000 15.914000 17.860001
H -2.448000 14.129000 17.496000
H -5.504000 17.473000 12.196000
H -7.352000 17.253000 10.920000
H -8.454000 19.146000 10.078000
H -5.859000 22.684000 11.528000
H -3.997000 22.879999 12.753000
H -3.029000 21.046000 13.812000
H -11.604000 22.844000 10.046000
H -12.310000 24.788000 9.120000
H -10.805000 26.302999 8.233000
H -4.756000 9.282000 11.395000
H -6.345000 8.644000 12.869000
H -7.143000 10.160000 14.512000
H -3.141000 15.212000 11.661000
H -2.554000 17.385000 11.819000
H -0.703000 18.250999 10.716000
H 0.991000 14.603000 8.376000
H 0.403000 12.474000 8.137000
H -1.369000 11.540000 9.379000
H 4.036000 19.240000 9.988000
H 5.717000 20.007000 8.545000
H 5.563000 19.427000 6.255000
H -11.257000 16.438000 13.497000
H -11.065000 16.531000 15.845000
H -9.115000 15.902000 16.854000
H -7.112000 13.265000 10.610000
H -6.155000 11.468000 9.620000
H -6.443000 11.040000 7.337000
H -8.699000 14.789000 5.812000
H -9.636000 16.625000 6.797000
H -9.496000 16.895000 9.155000
H -8.218000 11.447000 -0.334000
H -6.859000 9.829000 0.627000
H -6.328000 9.912000 2.859000
H -7.196000 18.575001 -1.533000
H -9.260000 18.465000 -2.378000
H -10.960000 17.278999 -1.350000
H -5.661000 14.253000 2.015000
H -4.826000 12.216000 2.602000
H -2.829000 12.017000 3.689000
H -1.314000 16.423000 4.084000
H -2.166000 18.427000 3.508000
H -4.255000 18.594999 2.445000
H 4.526000 13.089000 5.991000
H 3.421000 11.100000 6.137000
H 1.187000 11.018000 5.703000
H -14.495000 16.214001 5.751000
H -15.234000 14.287000 4.807000
H -13.904000 13.111000 3.374000
H -9.075000 18.049999 3.646000
H -7.215000 18.777000 2.572000
H -6.238000 20.858000 3.038000
H -8.934000 22.587000 6.307000
H -10.674000 21.784000 7.523000
H -11.659000 19.679001 7.080000
H -4.327000 28.002001 5.331000
H -4.209000 27.306000 3.030000
H -5.205000 25.332001 2.453000
H -1.951000 25.035999 12.353000
H -3.215000 26.733000 13.208000
H -5.137000 27.417999 12.114000
H -3.315000 23.497000 6.779000
H -3.599000 23.417000 4.497000
H -2.297000 21.955999 3.189000
H 0.276000 19.733000 6.265000
H 0.375000 19.653000 8.539000
H -0.921000 21.132999 9.869000
H 3.220000 17.148001 0.386000
H 2.299000 18.916000 -0.794000
H 0.853000 20.361000 0.263000
H -5.251000 25.399000 11.134000
