277
Structure5; Picture 1
 C   19.18025   -2.40114   71.13757
 C   19.91448   -2.55944   72.32394
 C   18.22319   -3.37583   70.84013
Ti   20.53780    0.00000   71.47920
 O   19.46367   -1.31618   70.40501
 C   19.78817   -3.62128   73.19926
 O   20.70210   -1.57586   72.60778
 C   18.03629   -4.43589   71.72905
 C   17.34828   -3.42208   69.61638
 C   23.29603    0.02490   71.13757
 C   19.13712    2.37624   71.13757
 C   23.06600    0.73991   72.32394
 C   18.63292    1.81953   72.32394
 O   21.82039    0.93022   72.60778
 O   19.09091    0.64564   72.60778
 O   22.21471   -0.27213   70.40501
 O   19.93502    1.58831   70.40501
 H   20.34064   -3.71733   73.96921
 C   18.79927   -4.53372   72.87462
 H   17.37601   -5.09576   71.53869
 O   16.51239   -4.23313   69.37502
 N   17.53415   -2.28553   68.79034
 C   24.61866   -0.31659   70.84013
 C   18.77155    3.69243   70.84013
 C   24.04874    1.16144   73.19926
 C   17.77649    2.45984   73.19926
 H   18.64113   -5.25940   73.45931
 C   16.83792   -1.90491   67.66686
 H   18.18622   -1.74661   69.02319
 C   25.63015    0.05158   71.72905
 C   25.09616   -1.05117   69.61638
 C   17.94696    4.38431   71.72905
 C   19.16896    4.47324   69.61638
 H   23.85568    1.68792   73.96921
 C   25.33338    0.76125   72.87462
 H   17.41708    2.02941   73.96921
 C   17.48075    3.77247   72.87462
 C   15.95890   -2.79422   67.05159
 C   17.00632   -0.65987   67.11617
 H   26.53176   -0.19031   71.53869
 O   26.21650   -1.36954   69.37502
 N   24.01896   -1.45847   68.79034
 H   17.70564    5.28608   71.53869
 O   18.88451    5.60267   69.37502
 N   20.06030    3.74401   68.79034
 H   26.04090    0.98714   73.45931
 H   16.93136    4.27226   73.45931
 H   15.86956   -3.68531   67.37453
 C   15.21338   -2.35312   65.95870
 C   16.17249   -0.17964   66.08618
 C   18.01473    0.17608   67.63628
 C   24.03744   -2.25174   67.66686
 H   23.22620   -1.16322   69.02319
 C   20.73804    4.15665   67.66686
 H   20.20098    2.90983   69.02319
 H   14.63729   -2.97386   65.52190
 C   15.26883   -1.06184   65.47090
 C   16.24848    1.12943   65.65957
 H   18.61752   -0.15652   68.29234
 C   18.12872    1.49760   67.18586
 C   25.24712   -2.56834   67.05159
 C   22.87500   -2.72841   67.11617
 C   20.40738    5.36256   67.05159
 C   21.73207    3.38828   67.11617
 H   14.71944   -0.78260   64.75705
 C   17.25381    1.92803   66.18646
 N   15.30272    1.71104   64.81483
 H   18.78182    2.08455   67.54449
 H   26.06350   -2.20016   67.37453
 C   25.23787   -3.43453   65.95870
 C   22.87603   -3.69065   66.08618
 C   21.64684   -2.27308   67.63628
 H   19.68035    5.88547   67.37453
 C   21.16215    5.78765   65.95870
 C   22.56488    3.87029   66.08618
 C   21.95183    2.09700   67.63628
 H   17.35136    2.81201   65.84483
 H   15.14868    1.19879   64.11118
 C   14.55822    2.83335   64.76554
 H   26.06349   -3.62306   65.52190
 C   24.09187   -4.03214   65.47090
 C   21.70435   -4.27937   65.65957
 H   21.63349   -1.58476   68.29234
 C   20.44538   -2.83513   67.18586
 H   20.91261    6.59692   65.52190
 C   22.25271    5.09398   65.47090
 C   23.66057    3.14995   65.65957
 H   21.36239    1.74127   68.29234
 C   23.03930    1.33753   67.18586
 C   13.71720    3.13394   63.78654
 O   14.93714    3.60350   65.82784
 H   24.12473   -4.64755   64.75705
 C   20.51007   -3.80804   66.18646
 N   21.67354   -5.38924   64.81483
 H   19.61052   -2.56300   67.54449
 H   22.76923    5.43014   64.75705
 C   23.84952    1.88001   66.18646
 N   24.63714    3.67820   64.81483
 H   23.22106    0.47845   67.54449
 C   13.09901    4.40743   63.91911
 C   13.36189    2.36201   62.74125
 H   19.69575   -4.16554   65.84483
 H   22.19417   -5.26651   64.11118
 C   21.07384   -6.59514   64.76554
 H   24.56629    1.35353   65.84483
 H   24.27054    4.06772   64.11118
 C   25.98134    3.76179   64.76554
 H   13.29515    5.01750   64.62107
 C   12.20561    4.65644   62.93671
 C   12.46850    2.65015   61.81664
 O   13.95954    1.10275   62.48290
 C   21.23403   -7.47378   63.78654
 O   20.21741   -6.65206   65.82784
 C   26.66217    4.33985   63.78654
 O   26.45885    3.04856   65.82784
 H   11.75892    5.49062   63.02339
 C   11.84312    3.93966   61.88292
Ti   13.17705    0.04980   61.01610
 O   12.19535    1.76084   60.81213
 C   20.44024   -8.64590   63.91911
 C   22.08019   -7.39552   62.74125
 C   28.07414    4.23847   63.91911
 C   26.17132    5.03351   62.74125
 H   11.22596    4.25092   61.23875
 C   13.26228   -2.36379   62.43021
 C   11.97764   -1.91380   62.54409
 C   14.50277    0.14407   58.54139
 C   13.23148   -0.52469   58.31534
 O   14.69582    0.43576   59.83653
 O   14.03245   -1.57408   61.75205
 O   12.49109   -0.66165   59.38612
 O   11.67882   -0.70611   61.99850
 H   19.81384   -8.78108   64.62107
 C   20.67130   -9.54411   62.93671
 C   22.27735   -8.31330   61.81664
 O   22.87192   -6.24831   62.48290
 H   28.50441    3.76357   64.62107
 C   28.73649    4.88766   62.93671
 C   26.86755    5.66314   61.81664
 O   24.78194    5.14556   62.48290
 C   13.55392   -3.60172   62.94011
 C   10.96924   -2.69284   63.27155
 C   15.38795    0.36462   57.48760
 C   12.91725   -0.91243   57.02020
 H   20.17223  -10.34804   63.02339
 C   21.47330   -9.49964   61.88292
Ti   24.17505   -6.39949   61.01610
 O   23.18410   -8.10520   60.81213
 H   29.68225    4.85743   63.02339
 C   28.29698    5.55998   61.88292
Ti   24.26130    6.34969   61.01610
 O   26.23396    6.34436   60.81213
 C   12.63485   -4.32206   63.65907
 C   14.93612   -4.22424   62.79394
 H   10.07071   -2.39581   63.32933
 C   11.36151   -3.85606   63.86133
 C   15.05215   -0.04269   56.18567
 C   16.67464    1.05650   57.58618
 H   12.06698   -1.29306   56.81964
 C   13.84967   -0.74169   56.01400
 H   21.51232  -10.18974   61.23875
 C   26.22266   -5.11889   62.43021
 C   26.47528   -6.45641   62.54409
 C   23.43055   -5.29853   58.54139
 C   24.64536   -6.06511   58.31534
 O   23.08141   -5.27718   59.83653
 O   25.15367   -4.84675   61.75205
 O   25.13416   -6.63783   59.38612
 O   25.57880   -7.31904   61.99850
 H   28.87512    5.93883   61.23875
 C   22.12845    7.48268   62.43021
 C   23.16048    8.37021   62.54409
 C   23.68008    5.15446   58.54139
 C   23.73656    6.58981   58.31534
 O   23.83617    4.84142   59.83653
 O   22.42728    6.42084   61.75205
 O   23.98815    7.29948   59.38612
 O   24.35578    8.02516   61.99850
 H   12.88644   -5.16335   64.02620
 O   15.11787   -5.38568   63.21715
 N   15.83875   -3.51101   62.19906
 H   10.75667   -4.34163   64.41711
 H   15.61900    0.14940   55.44291
 O   17.41605    1.18812   56.62928
 N   16.98681    1.52606   58.79294
 H   13.66585   -1.11698   55.15397
 C   27.14892   -4.24736   62.94011
 C   27.65415   -6.94020   63.27155
 C   22.79696   -4.64221   57.48760
 C   25.13827   -6.14337   57.02020
 C   20.91056    7.84907   62.94011
 C   22.99001    9.63304   63.27155
 C   23.42849    4.27759   57.48760
 C   23.55788    7.05581   57.02020
 C   17.16241   -3.95744   61.86082
 H   15.62516   -2.68572   61.98660
 C   18.05786    2.39581   59.21955
 H   16.44872    1.26282   59.43711
 C   28.23229   -4.68312   63.65907
 C   26.99694   -2.73908   62.79394
 H   27.84618   -7.86686   63.32933
 C   28.46539   -6.01887   63.86133
 C   23.31759   -4.72937   56.18567
 C   21.55442   -3.87385   57.58618
 H   25.89303   -6.68941   56.81964
 C   24.52419   -5.42125   56.01400
 C   20.74626    9.00518   63.65907
 C   19.68035    6.96332   62.79394
 H   23.69651   10.26267   63.32933
 C   21.78650    9.87493   63.86133
 C   23.24366    4.77205   56.18567
 C   23.38434    2.81734   57.58618
 H   23.65339    7.98247   56.81964
 C   23.23955    6.16294   56.01400
 C   17.79087   -4.83964   62.66986
 C   17.80935   -3.37050   60.72715
 C   17.93053    3.14639   60.34133
 C   19.25624    2.42249   58.42752
 H   28.83507   -4.04459   64.02620
 O   27.91190   -2.00095   63.21715
 N   25.92794   -2.31399   62.19906
 H   29.18832   -6.29989   64.41711
 H   22.86781   -4.33451   55.44291
 O   21.06973   -3.29757   56.62928
 N   20.99169   -3.83827   58.79294
 H   24.94110   -5.39279   55.15397
 H   19.89189    9.20794   64.02620
 O   18.58363    7.38663   63.21715
 N   19.84670    5.82500   62.19906
 H   21.66841   10.64152   64.41711
 H   23.12659    4.18511   55.44291
 O   23.12762    2.10945   56.62928
 N   23.63490    2.31221   58.79294
 H   23.00644    6.50977   55.15397
 H   17.38833   -5.14912   63.48230
 C   19.07961   -5.28608   62.26535
 C   19.11658   -3.83116   60.34133
 C   17.17371   -2.39047   59.87392
 C   16.75577    3.16062   61.14357
 C   18.98309    4.04815   60.72715
 C   20.26465    3.32247   58.80654
 C   25.65274   -0.94445   61.86082
 H   25.32003   -2.91161   61.98660
 C   19.70294   -3.34559   59.21955
 H   21.48870   -4.17266   59.43711
 C   18.79825    4.90189   61.86082
 H   20.66821    5.59734   61.98660
 C   23.85260    0.94979   59.21955
 H   23.67598    2.90983   59.43711
 H   19.53247   -5.91749   62.81944
 C   19.69164   -4.85565   61.14357
 H   16.29469   -2.09522   60.08298
 C   17.79703   -1.89779   58.80654
 C   16.68902    3.90586   62.26535
 H   16.00613    2.63770   60.88182
 C   20.14964    4.10863   59.87392
 H   21.05433    3.37050   58.28135
 C   26.10252    0.04091   62.66986
 C   24.82096   -0.67766   60.72715
 C   19.08064   -2.32111   58.42752
 C   17.72001    4.79873   62.66986
 C   24.56629    0.68477   60.34133
 C   23.27652   -0.10138   58.42752
 H   20.51932   -5.24339   60.88182
 H   17.36060   -1.23792   58.28135
 H   15.91577    3.82938   62.81944
 H   20.84484    4.72225   60.08298
 H   26.57181   -0.15296   63.48230
 C   25.84477    1.38021   62.26535
 C   24.29006   -1.71815   59.87392
 H   17.65326    5.30208   63.48230
 C   25.16599    1.69503   61.14357
 C   23.55172   -1.42468   58.80654
 H   26.16516    2.08811   62.81944
 H   24.47387   -2.62703   60.08298
 H   25.08795    2.60569   60.88182
 H   23.19847   -2.13257   58.28135
