252       
finsxm; Picture 1 (optimized by JVSG)
S 23.148630 1.543110 19.938210
O 24.365030 0.796410 19.864281
O 23.100389 2.572340 20.957140
N 21.831310 0.549350 20.022850
N 22.721451 2.217740 18.484280
S 14.144650 1.228620 22.721350
O 12.926710 0.476680 22.806419
O 14.151150 2.328190 21.788561
N 14.613810 1.787560 24.212130
N 15.468420 0.244150 22.527849
S 16.015200 8.178590 17.845711
O 15.054510 8.917450 17.082850
O 15.492550 7.080480 18.649281
N 16.924589 9.193580 18.769279
N 17.271290 7.670520 16.904989
S 21.017010 7.810320 25.428419
O 21.981251 8.469830 26.245701
O 21.549250 6.801440 24.535709
N 19.773310 7.202550 26.318560
N 20.079430 8.917450 24.634279
O 19.257780 -0.685960 19.694990
C 19.694620 0.258690 18.786421
O 21.079340 3.339680 16.285709
C 20.658800 2.299120 17.097851
O 17.877260 4.917970 16.782850
C 17.076670 3.970420 16.956421
O 16.621460 0.305190 19.879280
C 16.199940 1.002780 18.932140
O 16.263500 2.761270 26.453560
C 16.680410 1.807910 25.529989
O 18.115681 -0.921390 22.694990
C 17.647840 -0.061040 23.659281
O 19.348360 4.429660 26.299280
C 20.201111 3.557680 25.994989
O 20.648621 0.412740 22.538561
C 21.078341 1.020220 23.549990
O 19.082710 10.408530 20.264990
C 19.349100 9.556900 19.232140
O 20.003820 6.650300 16.221420
C 19.770729 7.626920 17.174999
O 20.969740 9.109280 21.951420
C 21.914700 8.527960 21.407141
O 22.411131 4.976100 18.267851
C 22.827660 5.868430 19.026421
O 17.070351 6.016660 26.852131
C 17.275610 7.080480 26.020710
O 17.900591 10.219610 23.316420
C 17.648680 9.222640 24.263559
O 14.801200 4.516860 24.602131
C 14.336450 5.455690 23.963560
O 16.106291 9.091840 21.452141
C 15.221310 8.397170 21.902130
C 20.928110 0.842910 18.968559
C 21.407400 1.802090 18.152140
N 15.935150 4.057610 17.661421
C 15.257350 2.784520 17.759991
N 15.494440 2.130540 19.054279
N 17.198521 2.735110 16.450710
C 16.092110 1.857320 16.799990
C 18.437559 2.275870 15.837850
N 16.459181 0.741180 17.635710
C 17.667379 -0.040690 17.320709
C 16.396650 0.476680 23.554279
C 15.928600 1.374820 24.467140
N 21.329750 3.796020 25.313560
C 22.042999 2.563620 24.944990
N 21.763109 2.124720 23.605709
N 20.128771 2.270050 26.307850
C 21.246189 1.493990 25.795700
C 18.903561 1.680010 26.871420
N 20.876921 0.505750 24.809990
C 19.771730 -0.421460 25.069269
C 18.514610 8.042560 17.487850
C 18.299660 8.940700 18.542139
N 22.430679 7.347880 21.749990
C 23.571470 6.967120 20.931419
N 23.365110 5.688220 20.234989
N 22.603870 9.016270 20.318560
C 23.505381 8.033840 19.765711
C 21.839180 9.931850 19.412140
N 22.873249 7.217090 18.711420
C 22.294600 7.754810 17.528570
C 18.507179 7.612390 25.722851
C 18.703819 8.612260 24.857130
N 13.811320 5.365580 22.727140
C 13.559160 6.693900 22.161421
N 14.199630 6.722970 24.434990
C 14.771660 7.156050 25.682131
C 13.582360 7.638550 23.455709
N 14.736550 7.231620 21.422140
N 14.463410 8.722710 23.016420
C 24.813770 6.836320 21.788561
C 26.110880 6.798540 21.265711
C 24.718479 6.580540 23.174990
C 10.064880 6.002130 20.757851
C 9.997530 6.807260 19.739990
C 11.213310 5.946900 21.576420
C 25.316641 3.252490 26.777130
C 23.992420 3.240860 26.414989
C 26.262609 2.801960 25.825701
C 28.456430 10.548050 17.888571
C 27.154400 9.844650 18.372850
C 25.858940 2.334000 24.644991
C 27.755529 2.793240 26.207130
C 8.201810 9.312750 24.904280
C 9.616690 8.891290 24.574280
C 13.454080 0.334260 11.749280
C 14.119120 0.720840 13.152850
C 23.512381 2.714760 25.199989
C 24.505831 2.255520 24.338560
C 20.651199 9.234270 18.764990
C 20.820620 8.257650 17.777140
C 27.201559 6.554380 22.137850
C 12.324480 6.720060 21.289280
C 16.388590 8.850600 24.644991
C 26.481489 10.394000 19.422850
C 26.669880 8.687830 17.753559
C 18.388321 0.235430 24.799280
C 17.966619 1.180080 25.718559
C 12.222160 8.115230 23.890711
C 11.708300 9.260430 23.414989
C 11.467610 7.362420 24.782129
C 16.203871 7.746090 25.512850
C 19.403540 1.680010 16.836420
C 18.962200 0.639450 17.676420
C 13.746130 2.941480 17.567141
C 13.160170 4.144810 17.397850
C 12.988840 1.796280 17.449280
C 24.788521 8.684920 19.257851
C 25.463860 8.155920 18.218559
C 25.259960 9.818490 19.849279
C 22.965679 -0.183120 26.633560
C 23.790859 -0.694680 27.640699
C 22.054430 0.840010 26.935711
C 15.363950 1.415510 15.499280
C 12.244930 7.560070 20.200710
C 23.700661 -0.226710 28.909281
C 22.042580 1.360290 28.204281
C 11.081880 7.626920 19.433571
C 8.711780 6.891550 18.874281
C 10.200000 7.754810 25.137850
C 22.858440 0.834190 29.196421
C 25.814381 6.286980 23.963560
C 11.004000 3.112970 17.179279
C 11.717020 4.249450 17.215710
C 11.596070 1.906730 17.222139
C 9.462580 3.240860 16.982140
C 10.372890 9.658630 23.695709
C 27.101860 6.301510 23.414989
C 15.019820 0.124980 15.299990
C 14.402750 -0.241250 14.106420
C 24.699530 -0.752810 29.991421
C 14.433120 2.046250 13.365000
C 15.093640 2.357250 14.567140
C 28.279980 5.938180 24.308559
H 18.470989 -0.546440 19.877140
H 21.481140 3.894840 16.737850
H 15.828090 3.342590 26.069990
H 18.881470 -0.712120 22.489281
H 19.547230 10.210890 20.909990
H 19.432560 6.066070 16.283569
H 17.686260 5.481850 26.766420
H 17.451851 10.077180 22.645710
H 21.710350 -0.058130 20.618561
H 23.215611 2.735110 18.008560
H 15.642480 4.784260 18.014990
H 15.212360 2.438640 19.806419
H 15.570420 -0.325540 21.891420
H 14.128080 2.258430 24.745710
H 21.608219 4.586620 25.114281
H 22.021311 2.554900 22.907141
H 17.186529 7.240340 16.165710
H 16.610950 9.786520 19.307140
H 22.120350 6.862480 22.388571
H 23.563919 4.920870 20.564989
H 19.857149 6.720060 27.025700
H 20.375080 9.574340 24.162849
H 13.646370 4.624400 22.322140
H 15.080860 6.830510 20.742849
H 9.341140 5.449870 20.952850
H 25.582609 3.548960 27.617130
H 28.632050 11.312490 18.443569
H 28.345570 10.832900 16.977850
H 29.192030 9.934760 17.944281
H 7.982240 10.106250 24.411421
H 8.134380 9.492960 25.844990
H 7.593610 8.609350 24.668560
H 13.227490 -0.598760 11.749280
H 14.075430 0.511560 11.042140
H 12.659150 0.854540 11.618570
H 26.256260 6.929330 20.354990
H 22.430410 10.263200 18.717850
H 21.523041 10.693380 19.922140
H 18.865669 3.022860 15.392140
H 18.228920 1.610260 15.165000
H 14.606892 9.738535 24.693905
H 15.436261 10.510089 23.616125
H 22.287060 7.071760 16.838570
H 22.835730 8.493080 17.213570
H 23.372459 3.604180 27.008560
H 23.020439 -0.523190 25.767851
H 17.672310 -0.235430 16.371420
H 17.620840 -0.886510 17.794279
H 14.811160 6.400330 26.290701
H 14.196440 7.827470 26.078560
H 24.407619 -1.360290 27.437130
H 18.439020 2.342720 27.404989
H 19.136971 0.935930 27.447849
H 25.114050 7.408920 17.792139
H 11.826940 6.583450 25.142139
H 22.840710 1.194610 30.053560
H 23.879101 6.612510 23.575710
H 24.253731 1.883480 23.524281
H 19.810120 -0.715020 25.992849
H 19.871889 -1.200430 24.501419
H 12.975430 8.089070 19.975710
H 26.488560 2.054970 24.019279
H 12.241160 9.809780 22.885710
H 28.055901 6.580540 21.771420
H 13.683240 4.915060 17.397850
H 13.388580 0.959180 17.519991
H 26.820471 11.143900 19.855709
H 15.195300 -0.511560 15.953570
H 11.302390 5.077830 17.127850
H 28.273760 2.476420 25.463560
H 27.892759 2.214830 26.959280
H 28.034389 3.682660 26.434280
H 9.724970 7.254870 25.763559
H 9.072720 2.365970 16.930710
H 9.281700 3.720450 16.169991
H 9.084120 3.717540 17.725710
H 11.030830 8.216960 18.717850
H 11.086010 1.139390 17.099991
H 24.779100 10.213790 20.537140
H 24.526590 -0.316820 30.827129
H 25.600031 -0.560970 29.712851
H 24.589830 -1.700360 30.094271
H 14.219110 2.703140 12.741420
H 27.135611 8.286720 17.054991
H 25.694901 6.077700 24.861420
H 15.352380 3.237950 14.727850
H 27.971230 5.810290 25.208561
H 28.925810 6.650300 24.291420
H 28.684240 5.130150 23.991421
H 10.012090 10.417250 23.299280
H 8.056120 6.275350 19.212851
H 8.922020 6.667740 17.965710
H 8.359600 7.783870 18.910709
H 14.182670 -1.133570 13.950000
H 11.223960 5.383020 22.315710
H 21.481131 2.072410 28.401421
C 15.109018 9.688013 23.866674
