152
znz4275_0m_sq; Picture 1
 C    6.55387    2.15372   12.15465
 N    7.87072    2.36983   12.20839
 N    5.83284    1.88178   13.24407
 N    5.86243    2.19257   11.01393
 C    4.61245    1.92791   11.40231
 C    4.58962    1.73366   12.77753
 C    3.43524    1.83322   10.66707
 C    3.39211    1.44472   13.41994
 H    3.37635    1.31025   14.36063
 C    2.21405    1.35002   12.68715
 C    2.23773    1.54427   11.30949
 O    1.00385    1.17277   13.29781
 O    1.01821    1.44958   10.58402
 H    3.45072    1.96768    9.72763
 C    0.48927    2.66363   10.11259
 C    1.05289    3.30950    9.01828
 C   -0.64392    3.18810   10.72081
 H    1.82750    2.95048    8.60156
 C    0.48417    4.48227    8.53463
 C   -0.64986    5.00917    9.14530
 O    1.01225    5.07230    7.42078
 C   -1.21264    4.36087   10.23716
 C   -1.21097    6.24507    8.58593
 H   -1.98742    4.72093   10.65440
 C   -1.26950    2.42373   11.90550
 C    2.22568    5.75945    7.60691
 C    2.17253    7.14833    7.56979
 C    3.44283    5.11358    7.78718
 C    3.33873    7.89132    7.71146
 O    0.91831    7.82334    7.47697
 H    3.30359    8.83957    7.68701
 C    4.55741    7.24545    7.89222
 C    4.60886    5.85658    7.92935
 N    5.79555    7.67765    8.05099
 N    5.87848    5.53364    8.10961
 H    3.47824    4.16451    7.81210
 C    6.62357    6.63843    8.18680
 N    7.93415    6.65785    8.44426
 C    0.39023    8.22883    8.66409
 C   -0.67948    7.55625    9.24056
 C    0.90818    9.36518    9.27476
 C   -1.23210    8.01759   10.43013
 H   -1.96359    7.55749   10.82350
 C   -0.71416    9.15394   11.04080
 C    0.35555    9.82652   10.46433
 C   -1.26594    9.63713   12.38426
 O    0.91581   10.95802   11.07011
 H    1.63977    9.82589    8.88117
 C    2.18273   10.77834   11.71253
 C    2.24791   10.52096   13.07797
 C    3.33369   10.71521   10.93576
 C    3.46828   10.20045   13.66421
 O    1.08256   10.64479   13.77413
 H    3.51315   10.02410   14.59728
 C    4.61924   10.13756   12.88744
 C    4.55152   10.39470   11.52444
 N    5.93947    9.84546   13.21965
 N    5.85651   10.25824   11.00660
 H    3.28745   10.89054   10.00372
 C    6.60541    9.93627   12.06549
 N    7.91980    9.72430   11.95924
 C    0.51047    9.46231   14.21381
 C   -0.59312    8.91356   13.57383
 C    1.05550    8.82857   15.32766
 C   -1.15421    7.73107   14.04526
 H   -1.90983    7.35598   13.60786
 C   -0.61003    7.09734   15.15667
 C    0.49525    7.64609   15.79665
 C   -1.27690    5.80559   15.73314
 O    1.06905    7.04149   16.94958
 H    1.81020    9.20369   15.76421
 C    2.21663    6.31549   16.80302
 C    2.16840    4.92662   16.86409
 C    3.42176    6.95651   16.53433
 C    3.32275    4.18119   16.65890
 O    0.92687    4.29045   16.89584
 H    3.28928    3.23292   16.70075
 C    4.52745    4.82221   16.39143
 C    4.57586    6.21108   16.32988
 N    5.76449    4.38029   16.15767
 N    5.84006    6.54859   16.06167
 H    3.45472    7.90538   16.49319
 C   -0.65657    4.56968   15.05164
 C    0.38015    3.88253   15.67451
 C   -1.15167    4.12291   13.83275
 C    0.92347    2.75104   15.07362
 H    1.63170    2.28343   15.49891
 C    0.42668    2.30669   13.85474
 C   -0.61089    2.99142   13.23430
 H   -1.86120    4.59258   13.40849
 C    6.56441    5.43045   15.95688
 N    7.87109    5.34425   15.69601
 H   -1.00975    1.46176   11.82103
 C   -2.81298    2.50094   11.90550
 H   -3.16589    2.01537   12.69345
 H   -3.09498    3.44669   11.97712
 C   -3.39525    1.88906   10.62555
 H   -2.95397    2.30220    9.84216
 H   -3.19148    0.91998   10.61092
 C   -4.90166    2.07845   10.50341
 H   -5.20118    1.72643    9.62760
 H   -5.10812    3.04651   10.52733
Cl   -5.80296    1.25533   11.80535
 H   -1.05059    5.75836   16.70561
 C   -2.81040    5.78131   15.61100
 H   -3.06708    5.94812   14.67063
 H   -3.14448    4.88502   15.86573
 C   -3.46289    6.83510   16.50746
 H   -3.17487    6.68767   17.44331
 H   -3.14735    7.73323   16.23254
 C   -4.98623    6.80111   16.44395
 H   -5.27647    7.05642   15.53191
 H   -5.35089    7.47041   17.07547
Cl   -5.66242    5.18885   16.84210
 H   -1.01262   10.60143   12.46262
 C   -2.79689    9.59342   12.35250
 H   -3.09895    8.65363   12.27373
 H   -3.12544   10.08919   11.56164
 C   -3.38337   10.21744   13.63001
 H   -2.94033    9.81304   14.41901
 H   -3.18621   11.18638   13.63651
 C   -4.89740   10.01591   13.75459
 H   -5.20168   10.38841   14.61860
 H   -5.09264    9.04448   13.75893
Cl   -5.81988   10.78076   12.44044
 H   -0.90042    6.27448    7.63618
 C   -2.75123    6.34463    8.52242
 H   -2.99992    7.23324    8.16274
 H   -3.11512    6.28001    9.44113
 C   -3.41389    5.24227    7.64062
Cl   -5.74292    6.58744    7.11789
 H   -3.11749    5.37700    6.70555
 H   -3.06682    4.36298    7.93555
 C   -4.91777    5.18157    7.65284
 H   -5.21081    4.98351    8.57667
 H   -5.19940    4.42130    7.08397
 H    8.29200    2.33258   12.98000
 H    8.31775    2.54662   11.47112
 H    6.11102    1.81367   14.07734
 H    6.15830    2.35509   10.20104
 H    6.18672    4.71217    8.16907
 H    6.03706    8.52348    8.06604
 H    8.36731    5.90380    8.57716
 H    8.36447    7.42496    8.48082
 H    6.11913   10.36216   10.17419
 H    6.26333    9.64580   14.01304
 H    8.31469    9.79576   11.17607
 H    8.39028    9.51330   12.67195
 H    6.01225    3.53580   16.13906
 H    6.14462    7.36788   15.96946
 H    8.25898    4.55587   15.64686
 H    8.34447    6.07588   15.57297
