280
Structure3; Picture 1
Ti    0.00000    0.00000   12.69475
 O    1.56851    0.49641   13.84451
 O   -1.21416    1.11016   13.84451
 O   -0.35435   -1.60658   13.84451
 O    1.44032   -0.70040   11.59406
 O   -0.11360    1.59755   11.59406
 O   -1.32672   -0.89716   11.59406
 C    2.76496    0.27980   13.26718
 C   -1.62479    2.25462   13.26718
 C   -1.14017   -2.53442   13.26718
 C    2.67220   -0.41157   12.04873
 C   -0.97967    2.51998   12.04873
 C   -1.69253   -2.10841   12.04873
 C    4.01247    0.68234   13.76437
 C   -2.59716    3.13373   13.76437
 C   -1.41531   -3.81607   13.76437
 C    3.84155   -0.69318   11.30621
 C   -1.32047    3.67347   11.30621
 C   -2.52108   -2.98029   11.30621
 C    5.16723    0.43323   13.00877
 C    4.18964    1.38996   15.02861
 C   -2.95881    4.25833   13.00877
 C   -3.29856    2.93336   15.02861
 C   -2.20842   -4.69157   13.00877
 C   -0.89108   -4.32332   15.02861
 H    3.78840   -1.15349   10.48355
 C    5.08281   -0.27980   11.81322
 H   -0.89525    3.85759   10.48355
 C   -2.29909    4.54174   11.81322
 H   -2.89315   -2.70410   10.48355
 C   -2.78372   -4.26194   11.81322
 H    6.00828    0.75274   13.31297
 O    5.32773    1.81958   15.43585
 N    3.07762    1.66976   15.71225
 H   -3.65604    4.82695   13.31297
 O   -4.23967    3.70415   15.43585
 N   -2.98486    1.83042   15.71225
 H   -2.35225   -5.57970   13.31297
 O   -1.08806   -5.52374   15.43585
 N   -0.09276   -3.50017   15.71225
 H    5.87801   -0.49100   11.33402
 H   -2.51379    5.33600   11.33402
 H   -3.36422   -4.84501   11.33402
 H    2.32723    1.34844   15.39005
 C    2.97027    2.44416   16.94051
 H   -2.33140    1.34122   15.39005
 C   -3.60184    1.35025   16.94051
 H    0.00417   -2.68966   15.39005
 C    0.63157   -3.79441   16.94051
 C    3.93743    2.24560   17.93980
 C    1.87700    3.29078   17.17439
 C   -3.91346    2.28712   17.93980
 C   -3.78840   -0.01986   17.17439
 C   -0.02397   -4.53271   17.93980
 C    1.91139   -3.27092   17.17439
 H    4.62528    1.59936   17.82695
 C    3.86552    3.01639   19.10428
 C    1.81864    4.08143   18.33723
 C    0.89108    3.46046   16.16528
 H   -3.69773    3.20593   17.82695
 C   -4.54503    1.83944   19.10428
 C   -4.44394   -0.46573   18.33723
 C   -3.44239   -0.95853   16.16528
 H   -0.92756   -4.80529   17.82695
 C    0.67951   -4.85584   19.10428
 C    2.62530   -3.61570   18.33723
 C    2.55131   -2.50193   16.16528
 H    4.54503    2.92614   19.75684
 C    2.80769    3.92438   19.32180
 C    0.74413    4.96414   18.54003
 H    0.94319    2.97668   15.35735
 C   -0.15425    4.35762   16.40243
 H   -4.80663    2.47305   19.75684
 C   -4.80246    0.46934   19.32180
 C   -4.67114   -1.83764   18.54003
 H   -3.04948   -0.67151   15.35735
 C   -3.69668   -2.31239   16.40243
 H    0.26159   -5.39918   19.75684
 C    1.99477   -4.39372   19.32180
 C    3.92701   -3.12651   18.54003
 H    2.10629   -2.30517   15.35735
 C    3.85093   -2.04523   16.40243
 H    2.76704    4.42441   20.13301
 N    0.78790    5.84866   19.64726
 C   -0.25951    5.11397   17.57508
 H   -0.82542    4.45870   15.73351
 H   -5.21517    0.18412   20.13301
 N   -5.45904   -2.24199   19.64726
 C   -4.29908   -2.78173   17.57508
 H   -3.44864   -2.94419   15.73351
 H    2.44813   -4.60853   20.13301
 N    4.67114   -3.60668   19.64726
 C    4.55858   -2.33225   17.57508
 H    4.27406   -1.51452   15.73351
 H    1.39551    5.64107   20.24749
 C    0.05836    6.96785   19.95474
 H   -0.98801    5.70786   17.71247
 H   -5.58307   -1.61199   20.24749
 C   -6.06352   -3.43338   19.95474
 H   -4.44915   -3.70957   17.71247
 H    4.18756   -4.02908   20.24749
 C    6.00516   -3.53447   19.95474
 H    5.43716   -1.99829   17.71247
 O   -0.94528    7.29819   19.17297
 C    0.46586    7.77114   21.07015
 O   -5.84778   -4.46773   19.17297
 C   -6.96294   -3.48212   21.07015
 O    6.79306   -2.83046   19.17297
 C    6.49707   -4.28902   21.07015
 C   -0.31370    8.93365   21.34982
 C    1.56955    7.48773   21.88136
 C   -7.57992   -4.73850   21.34982
 C   -7.26934   -2.38459   21.88136
 C    7.89362   -4.19515   21.34982
 C    5.69979   -5.10314   21.88136
 H   -1.08389    9.14486   20.83627
 C    0.09067    9.74597   22.40471
Ti    3.83603    6.33804   23.13006
 O    2.35746    6.40104   21.78486
 C    1.90931    8.30005   22.96242
 H   -7.37773   -5.51110   20.83627
 C   -8.48559   -4.79446   22.40471
Ti   -7.40692    0.15308   23.13006
 O   -6.72219   -1.15890   21.78486
 C   -8.14271   -2.49651   22.96242
 H    8.46162   -3.63375   20.83627
 C    8.39492   -4.95151   22.40471
Ti    3.57089   -6.49112   23.13006
 O    4.36473   -5.24214   21.78486
 C    6.23340   -5.80354   22.96242
 H   -0.40958   10.53662   22.56990
 C    1.17352    9.48061   23.22737
 O    2.99528    7.98234   23.69839
 O    4.75869    4.82695   22.25588
 O    5.15993    7.30181   22.17575
 O    4.86812    6.26565   24.79091
 O    2.71493    5.13563   24.17596
 C    5.87592    5.14466   21.56243
 C    6.04997    6.53642   21.48393
 C    4.35848    5.52735   25.71824
 C    3.08700    4.96053   25.47618
 H   -8.92019   -5.62302   22.56990
 C   -8.79721   -3.72401   23.22737
 O   -8.41055   -1.39718   23.69839
 O   -6.55961    1.70767   22.25588
 O   -8.90351    0.81773   22.17575
 O   -7.86027    1.08309   24.79091
 O   -5.80505   -0.21662   24.17596
 C   -7.39337    2.51637   21.56243
 C   -8.68569    1.97122   21.48393
 C   -6.96606    1.01088   25.71824
 C   -5.83945    0.19315   25.47618
 H    9.32977   -4.91360   22.56990
 C    7.62369   -5.75660   23.22737
 O    5.41527   -6.58516   23.69839
 O    1.80092   -6.53462   22.25588
 O    3.74358   -8.11954   22.17575
 O    2.99216   -7.34874   24.79091
 O    3.09012   -4.91902   24.17596
 C    1.51744   -7.66103   21.56243
 C    2.63572   -8.50764   21.48393
 C    2.60758   -6.53823   25.71824
 C    2.75245   -5.15368   25.47618
 H    1.41010   10.06367   23.94372
 C    6.80348    4.26375   20.97038
 C    7.17138    7.04547   20.78884
 C    4.90980    5.35586   27.01355
 C    2.38247    4.21320   26.42314
 H   -9.42045   -3.81066   23.94372
 C   -7.09426    3.76011   20.97038
 C   -9.68725    2.68786   20.78884
 C   -7.09321    1.57408   27.01355
 C   -4.83998   -0.04332   26.42314
 H    8.01035   -6.25302   23.94372
 C    0.29077   -8.02386   20.97038
 C    2.51587   -9.73333   20.78884
 C    2.18341   -6.92994   27.01355
 C    2.45751   -4.16988   26.42314
 C    7.89154    4.77280   20.20988
 C    6.80869    2.83949   21.17319
 H    7.34230    7.98054   20.78721
 C    8.03432    6.16817   20.11011
 C    4.24071    4.61936   27.96542
 H    5.74669    5.75119   27.23108
 C    2.96402    4.06157   27.71845
 C    1.05679    3.70776   26.20071
 C   -8.07913    4.44787   20.20988
 C   -5.86342    4.47676   21.17319
 H  -10.58250    2.36835   20.78721
 C   -9.35896    3.87384   20.11011
 C   -6.12084    1.36288   27.96542
 H   -7.85402    2.10119   27.23108
 C   -4.99943    0.53613   27.71845
 C   -3.73941   -0.93867   26.20071
 C    0.18760   -9.22067   20.20988
 C   -0.94528   -7.31625   21.17319
 H    3.24020  -10.34889   20.78721
 C    1.32464  -10.04201   20.11011
 C    1.88013   -5.98225   27.96542
 H    2.10733   -7.85237   27.23108
 C    2.03542   -4.59770   27.71845
 C    2.68262   -2.76909   26.20071
 H    8.50435    4.18793   19.77320
 O    7.54240    2.05245   20.47646
 N    5.94367    2.33405   22.05145
 H    8.73051    6.52559   19.57693
 H    4.64925    4.48217   28.81751
 H    2.50128    3.59224   28.40864
 O    0.45753    3.08860   27.11659
 N    0.48254    3.91536   25.03296
 H   -7.87903    5.27102   19.77320
 O   -5.54867    5.50569   20.47646
 N   -4.99318    3.98034   22.05145
 H  -10.01658    4.29805   19.57693
 H   -6.20630    1.78529   28.81751
 H   -4.36161    0.37005   28.40864
 O   -2.90357   -1.14807   27.11659
 N   -3.63207   -1.53979   25.03296
 H   -0.62532   -9.45895   19.77320
 O   -1.99373   -7.55814   20.47646
 N   -0.95049   -6.31439   22.05145
 H    1.28607  -10.82364   19.57693
 H    1.55705   -6.26746   28.81751
 H    1.86033   -3.96229   28.40864
 O    2.44604   -1.94053   27.11659
 N    3.14953   -2.37557   25.03296
 H    5.39651    2.92433   22.40635
 C    5.75086    0.97117   22.52084
 C   -0.79624    3.43699   24.54885
 H    0.93902    4.41358   24.46708
 H   -5.23080    3.21135   22.40635
 C   -3.71649    4.49481   22.52084
 C   -2.57840   -2.40806   24.54885
 H   -4.29178   -1.39357   24.46708
 H   -0.16571   -6.13568   22.40635
 C   -2.03437   -5.46597   22.52084
 C    3.37464   -1.02893   24.54885
 H    3.35276   -3.02000   24.46708
 C    6.81078    0.05235   22.33439
 C    4.60236    0.63541   23.24209
 C   -1.64772    4.20057   23.74746
 C   -1.12558    2.09036   24.78600
 C   -3.45072    5.87213   22.33439
 C   -2.85146    3.66805   23.24209
 C   -2.81394   -3.52725   23.74746
 C   -1.24751   -2.01996   24.78600
 C   -3.36005   -5.92448   22.33439
 C   -1.75090   -4.30346   23.24209
 C    4.46166   -0.67332   23.74746
 C    2.37309   -0.07040   24.78600
 H    7.61431    0.30687   21.89935
 C    6.62735   -1.25096   22.82831
 C    3.61227    1.60658   23.51195
 C   -1.36528    5.56706   23.55120
 C   -2.31264    1.55423   24.25447
 H   -0.54715    1.54701   25.30119
 H   -4.07292    6.44075   21.89935
 C   -2.23031    6.36494   22.82831
 C   -3.19747    2.32502   23.51195
 C   -4.13858   -3.96590   23.55120
 C   -0.18968   -2.77992   24.25447
 H   -1.06617   -1.24735   25.30119
 H   -3.54140   -6.74763   21.89935
 C   -4.39704   -5.11397   22.82831
 C   -0.41480   -3.93160   23.51195
 C    5.50386   -1.60116   23.55120
 C    2.50232    1.22569   24.25447
 H    1.61333   -0.29965   25.30119
 H    7.29227   -1.90804   22.66803
 H    3.70398    2.49832   23.19139
 H   -0.57529    5.94253   23.92737
 H   -2.51379    0.63541   24.40166
 H   -1.99373    7.26931   22.66803
 H   -4.01560    1.95858   23.19139
 H   -4.85874   -3.46949   23.92737
 H    0.70661   -2.49471   24.40166
 H   -5.29854   -5.36128   22.66803
 H    0.31162   -4.45690   23.19139
 H    5.43403   -2.47305   23.92737
 H    1.80717    1.85930   24.40166
