322
Structure4; Picture 1
Ga   -5.66790   14.17210   14.26685
 O   -6.89293   14.92254   15.58756
 O   -6.52457   12.43134   14.49331
 O   -4.32572   13.69544   15.61654
 O   -4.71734   13.26380   12.76136
 O   -4.55414   15.82591   14.12373
 O   -7.04194   14.87013   12.97876
Ga   -9.76664   14.78750    2.06204
 O  -11.37086   13.72011    2.36603
 O   -9.11817   13.56595    0.66669
 O  -10.63923   15.92766    0.71742
 O   -8.25760   16.06023    1.79355
 O  -10.50016   15.84133    3.59072
 O   -8.61256   13.64303    3.22838
Ga   -6.56866   25.29988    8.52134
 O   -5.70274   26.75266    7.52203
 O   -8.39613   25.97571    8.27206
 O   -6.37280   26.31486   10.19242
 O   -7.50826   23.74657    9.30108
 O   -4.85596   24.44029    9.10180
 O   -6.54190   24.37246    6.73577
Ga    2.38277   17.05209    4.84765
 O    3.63237   15.66250    5.38064
 O    3.78687   18.39728    5.13788
 O    2.86034   16.85261    2.94214
 O    1.06889   18.34178    4.13422
 O    1.87279   17.49391    6.71403
 O    1.06929   15.54226    4.85888
 C   -3.51334   14.67589   15.89192
 C   -3.60676   15.86908   15.06942
 O   -2.11460   19.18348   14.91362
 C   -2.89080   18.23387   14.64911
 O  -10.14129   20.82990   10.75041
 C   -9.30336   21.67468   10.36996
 C   -9.31206   25.10934    8.76483
 C   -8.84255   23.89457    9.30108
 C   -6.03286   11.51872   13.61284
 C   -5.03475   11.99353   12.69252
 O   -3.07091   10.59069    9.97140
 C   -3.44401   11.46631   10.80476
 O    1.89868   18.26778   10.82650
 C    1.85416   17.92247    9.59457
 C    2.83186   18.20304    7.27927
 C    3.87498   18.68093    6.47126
 C   -8.06522   15.22161   15.10928
 C   -8.18002   15.23086   13.61284
 O  -10.63214   15.96157   11.06564
 C   -9.56668   15.55768   11.55842
 O   -6.14412   10.68318    4.96758
 C   -6.85740   11.57422    4.54365
 C   -8.05114   12.65950    2.53995
 C   -8.32165   12.61633    1.13410
 C   -9.72957   16.68303    0.10870
 C   -8.44832   16.78169    0.67032
 O   -5.16973   18.29245    0.03986
 C   -6.07729   17.60182    0.57611
 O   -0.91460   11.84554    4.88062
 C   -0.38527   12.94931    4.86613
 C    1.65490   14.40765    5.19948
 C    3.07028   14.49090    5.47847
 C  -12.20899   14.28741    3.22838
 C  -11.71956   15.47443    3.91682
 O  -13.03606   18.02113    6.16328
 C  -12.20224   17.45074    5.43137
 O   -6.29982   23.26868    2.69576
 C   -6.44236   23.52767    3.94218
 C   -6.00086   25.14633    5.83718
 C   -5.51099   26.41043    6.24299
 C   -5.26489   25.98804   10.81201
 C   -4.40814   24.97676   10.27576
 O   -1.41077   23.12378   11.10550
 C   -2.39465   23.50609   10.44605
 O   -0.60120   21.61610    2.07979
 C   -0.12127   20.70040    2.75011
 C    1.34211   18.65934    2.84431
 C    2.34798   17.83614    2.22835
 N   -3.89256   18.38803   13.75778
 C   -4.38712   19.54113   13.09833
 N   -7.99000   21.47736   10.42794
 C   -7.30561   20.30576   10.91709
 N   -2.95843   12.69033   10.83737
 C   -1.87827   13.26380   10.14894
 N    0.93065   17.12393    9.13079
 C   -0.17352   16.57512    9.82646
 N   -8.54188   15.09828   10.80114
 C   -8.49823   15.02429    9.39167
 N   -7.40880   12.54542    5.31542
 C   -7.28917   12.68108    6.74664
 N   -5.80112   16.87727    1.68485
 C   -4.55775   16.81561    2.35879
 N   -1.05351   14.05309    4.39147
 C   -2.28993   14.13017    3.75014
 N  -11.02289   17.96255    5.11252
 C  -10.44490   19.19273    5.50383
 N   -7.09360   22.69213    4.76830
 C   -7.65225   21.44653    4.45669
 N   -2.66896   22.98195    9.23586
 C   -1.88749   22.07858    8.47859
 N   -0.47061   20.52466    4.05088
 C   -1.29993   21.32937    4.84439
 C   -2.55754   14.66047   16.88833
 C   -2.78385   16.98827   15.32305
 C   -1.86355   16.88960   16.39556
 C   -1.72650   15.73958   17.15646
 C   -3.89572   20.78365   13.35921
 C   -5.48480   19.33456   12.25047
 C   -5.97978   18.08587   11.87364
 C   -6.14000   20.50308   11.73234
 C   -7.06625   17.94713   11.09101
 C   -7.74927   19.09099   10.60548
 C   -5.59905   21.78259   12.00408
 C   -4.51947   21.89667   12.76136
 C   -9.72622   22.96962    9.81559
 C  -11.12895   23.24093    9.78298
 C  -11.56489   24.40021    9.26485
 C  -10.67047   25.34674    8.75758
 C   -6.43656   10.21763   13.62009
 C   -4.52603   11.07783   11.76495
 C   -4.96461    9.77057   11.75770
 C   -5.89763    9.33892   12.62367
 C   -1.07996   12.47451    9.32282
 C   -1.60830   14.62348   10.30474
 C   -2.38647   15.47135   11.14173
 C   -0.47847   15.20928    9.64167
 C   -2.05649   16.76936   11.27942
 C   -0.94787   17.34591   10.63809
 C    0.31688   14.35216    8.77932
 C    0.00811   13.08806    8.61990
 C    2.87360   18.46511    8.66700
 C    3.94338   19.19890    9.19963
 C    4.95561   19.69529    8.37351
 C    4.86966   19.38389    6.97491
 C   -9.19875   15.55459   15.81220
 C   -9.35699   15.58851   13.05123
 C  -10.48078   15.91224   13.80126
 C  -10.38272   15.91224   15.21073
 C   -9.11243   16.01090    8.64888
 C   -7.83997   13.98218    8.77570
 C   -7.11478   13.03256    9.52211
 C   -7.88752   13.83727    7.32999
 C   -6.53139   11.98736    8.90614
 C   -6.65477   11.78079    7.50753
 C   -8.56846   14.83005    6.60170
 C   -9.16260   15.89682    7.21042
 C   -7.27259   11.67596    3.10157
 C   -6.68034   10.66469    2.25371
 C   -7.80375   11.63588    0.35146
 C   -6.97172   10.65852    0.91308
 C  -10.00882   17.42607   -1.05077
 C   -7.41810   17.51857    0.09058
 C   -7.76460   18.26162   -1.11961
 C   -8.98930   18.18762   -1.63050
 C   -3.87200   17.92247    2.68126
 C   -4.04689   15.53301    2.71387
 C   -4.71955   14.35216    2.35516
 C   -2.78349   15.41893    3.38419
 C   -4.19424   13.13739    2.67764
 C   -3.00037   13.02639    3.34795
 C   -2.08205   16.63679    3.66318
 C   -2.60736   17.82689    3.34071
 C    1.02135   13.18672    5.22121
 C    1.77793   12.03361    5.54007
 C    3.73037   13.30696    5.76834
 C    3.10234   12.09528    5.81182
 C  -13.45662   13.82802    3.53637
 C  -12.54950   16.16198    4.80091
 C  -13.85931   15.61934    5.02193
 C  -14.27859   14.48165    4.41321
 C  -10.98200   19.88645    6.56185
 C   -9.34727   19.68604    4.82627
 C   -8.70667   18.91216    3.83710
 C   -8.74857   20.94397    5.13063
 C   -7.59652   19.39314    3.22114
 C   -7.03520   20.66649    3.53274
 C   -9.34990   21.68702    6.18140
 C  -10.40065   21.16288    6.86983
 C   -5.91146   24.80102    4.46394
 C   -5.33430   25.69822    3.56898
 C   -4.88444   27.26447    5.33716
 C   -4.78993   26.89449    3.93493
 C   -4.86895   26.59234   12.01858
 C   -3.29198   24.55437   10.92433
 C   -2.93604   25.20491   12.14539
 C   -3.70859   26.19153   12.67802
 C   -1.06456   21.20296    9.07281
 C   -2.02043   22.11558    7.05462
 C   -2.91840   22.97270    6.43865
 C   -1.18463   21.27387    6.23575
 C   -3.06027   22.97886    5.06904
 C   -2.24046   22.13716    4.25741
 C   -0.31453   20.42292    6.87708
 C   -0.25157   20.34892    8.24307
 C    0.79926   19.70762    2.16313
 C    1.21664   19.96352    0.84424
 C    2.69294   18.08587    0.88047
 C    2.12465   19.14957    0.19566
 H   -4.30328   17.65731   13.55487
 H   -7.49358   22.11866   10.14170
 H   -3.37274   13.22680   11.36276
 H    1.00029   16.90810    8.30104
 H   -7.84600   14.82080   11.22145
 H   -7.87597   13.14047    4.90599
 H   -6.44426   16.41171    2.01457
 H   -0.64752   14.80230    4.50380
 H  -10.53900   17.47541    4.59438
 H   -7.17672   22.95420    5.58355
 H   -3.41245   23.22552    8.88078
 H   -0.13999   19.83095    4.43858
 H   -1.32852   17.62340   16.59484
 H   -1.09142   15.69334   17.83402
 H   -2.46523   13.88968   17.40284
 H   -5.54158   17.32125   12.17076
 H   -7.37149   17.09926   10.86998
 H   -8.50620   18.99233   10.07285
 H   -6.00426   22.54106   11.65262
 H   -4.15871   22.74146   12.90267
 H   -3.16132   20.89773   13.91720
 H  -11.73597   22.62122   10.11633
 H  -12.47557   24.57595    9.23949
 H  -10.99541   26.14837    8.41337
 H   -4.60720    9.17551   11.13811
 H   -6.19615    8.46022   12.57657
 H   -7.04253    9.90931   14.25417
 H   -3.12490   15.12912   11.59465
 H   -2.58697   17.30892   11.82292
 H   -0.74499   18.24620   10.76491
 H    1.05138   14.70672    8.33728
 H    0.51282   12.57317    8.02929
 H   -1.25053   11.56497    9.22499
 H    3.97872   19.35922   10.11633
 H    5.65620   20.20401    8.71410
 H    5.53765   19.68912    6.40604
 H  -11.28362   16.12498   13.38095
 H  -11.11659   16.15273   15.73249
 H   -9.16330   15.53609   16.74340
 H   -7.04195   13.12814   10.44605
 H   -6.03537   11.38306    9.41340
 H   -6.29154   11.01617    7.11622
 H   -8.61455   14.75914    5.67775
 H   -9.60110   16.54429    6.70678
 H   -9.49011   16.74778    9.07281
 H   -7.99947   11.61122   -0.55799
 H   -6.61505    9.99564    0.36958
 H   -6.10798   10.02339    2.60880
 H   -7.12215   18.79192   -1.53629
 H   -9.17459   18.66243   -2.40589
 H  -10.85813   17.41066   -1.43121
 H   -5.52802   14.40149    1.89862
 H   -4.65474   12.36660    2.43488
 H   -2.66464   12.17852    3.53637
 H   -1.24986   16.60287    4.07624
 H   -2.14043   18.60385    3.55086
 H   -4.22128   18.75801    2.47111
 H    4.64224   13.34088    5.94588
 H    3.57996   11.32448    6.02197
 H    1.35294   11.20732    5.56181
 H  -14.43900   16.06023    5.59804
 H  -15.12616   14.14558    4.59076
 H  -13.75658   13.04181    3.13780
 H   -9.04008   18.07354    3.60521
 H   -7.18586   18.87208    2.57256
 H   -6.25911   20.95939    3.10882
 H   -9.02463   22.53181    6.39880
 H  -10.75874   21.65619    7.57275
 H  -11.69334   19.54421    7.05824
 H   -4.52782   28.07226    5.63065
 H   -4.37238   27.44638    3.31172
 H   -5.31872   25.47007    2.66677
 H   -2.15709   24.95210   12.58744
 H   -3.46561   26.59542   13.47878
 H   -5.39148   27.27064   12.38453
 H   -3.43170   23.54925    6.95679
 H   -3.69180   23.53075    4.67047
 H   -2.34537   22.13716    3.33346
 H    0.24565   19.88028    6.36981
 H    0.32381   19.73537    8.64164
 H   -1.01710   21.14746   10.00038
 H    3.30319   17.53399    0.44929
 H    2.35563   19.31606   -0.68843
 H    0.86814   20.69732    0.39494
 C   -5.46137   27.89036    8.79382
 H   -5.29080   26.98082    8.89165
 H   -4.71901   24.88735   10.01850
 H    0.60848   17.83922    2.72112
 C  -10.76043   25.03534    8.54018
 C   -9.41542   24.91510    9.72501
 C   -9.56081   23.41051   10.10546
 C   -1.67237   11.17649    6.09806
 H   -1.14984   11.85479    5.73210
 C   -4.78506   24.68694   10.96419
 H   -5.45186   25.27891   11.34464
 C   -2.34870   24.19980   11.01492
 H   -2.52700   23.26252   11.12362
 H   -2.27856   24.40637   10.08010
 C    0.03063   20.93472    2.68489
 C    0.69197   19.79395    2.28994
 H   -0.83980   20.95014    3.01461
 C   -0.03777   18.52368    2.48923
 C    1.95853   19.76312    1.84065
 H    2.32592   18.93375    1.63774
 C   -6.26791   20.65724   11.44971
 H   -6.56904   19.78778   11.58015
 C   -1.16985   21.42803    7.59449
 C   -1.13436   21.42495    8.36264
 C   -1.65272   21.16904    9.76124
 C   -2.83273   10.77568    5.43861
 C   -1.27643   10.57219    7.30463
 C   -5.36818   20.96247   10.43156
 C   -6.70001   21.69010   12.26134
 C   -6.22110   22.95420   12.12728
 C  -10.73190   23.11452    8.93513
 C   -9.61396   16.48879   16.39193
 H   -2.06342   16.90194    2.47111
 O   -5.62673   27.26139   13.23602
 H   -3.91181   26.93766   11.83379
 N   -3.45635   24.97984   11.60914
 C   -3.56480   24.71777   13.10920
 C   -0.07047   19.99127    9.16340
 C   -2.39891   21.74868    8.22133
 C   -0.86379   21.19371    6.56909
 C   -0.62934   20.72815    8.99310
 C   -5.25714   23.27176   11.11637
